9926
  SciTegic06232017503D

 70 72  0  0  0  0            999 V2000
   -4.7720    3.2593   -1.5856 C   0  0
   -3.6357    2.4481   -1.3248 O   0  0
   -3.7601    1.1049   -1.1713 C   0  0
   -4.8286    0.4946   -1.2562 O   0  0
   -2.4758    0.4179   -0.9444 C   0  0
   -1.5551    0.9964   -0.1518 C   0  0
   -0.3680    0.4755    0.2371 O   0  0
   -0.0832   -0.8546   -0.1559 C   0  0  2  0  0  0
    1.3058   -0.9923   -0.1746 O   0  0
    1.9072   -1.1724    1.0738 C   0  0  1  0  0  0
    1.8111   -2.5255    1.4374 O   0  0
    2.3289   -2.8052    2.7427 C   0  0  1  0  0  0
    1.9730   -4.2653    3.0956 C   0  0
    0.5734   -4.4289    3.2080 O   0  0
    3.8561   -2.5439    2.7344 C   0  0  2  0  0  0
    4.4325   -2.7648    4.0106 O   0  0
    4.1628   -1.1197    2.2180 C   0  0  1  0  0  0
    5.5566   -0.9115    2.0569 O   0  0
    3.3912   -0.8044    0.9127 C   0  0  2  0  0  0
    3.5462    0.5548    0.5421 O   0  0
   -0.6912   -1.2675   -1.5213 C   0  0
   -0.0188   -1.9278   -2.5037 C   0  0
    1.4155   -2.4256   -2.5185 C   0  0
   -2.2069   -0.9291   -1.6404 C   0  0  2  0  0  0
   -2.7795   -1.0296   -3.1001 C   0  0
   -2.2046   -0.0619   -4.1514 C   0  0
   -1.6399    0.9906   -3.8455 O   0  0
   -2.3592   -0.5406   -5.4013 O   0  0
   -1.8280    0.1487   -6.5290 C   0  0
   -1.3891   -0.8670   -7.5968 C   0  0
   -0.2966   -1.8083   -7.1057 C   0  0
   -0.6055   -3.1240   -6.7473 C   0  0
    0.3939   -3.9791   -6.2838 C   0  0
    1.7096   -3.5263   -6.1730 C   0  0
    2.6761   -4.3833   -5.7104 O   0  0
    2.0246   -2.2077   -6.5268 C   0  0
    3.3083   -1.7348   -6.4200 O   0  0
    1.0215   -1.3553   -6.9926 C   0  0
   -4.4671    4.3012   -1.6832 H   0  0
   -5.4968    3.1920   -0.7731 H   0  0
   -5.2615    2.9602   -2.5135 H   0  0
   -1.6730    1.9788    0.2843 H   0  0
   -0.5092   -1.4804    0.6335 H   0  0
    1.4098   -0.5761    1.8452 H   0  0
    1.8538   -2.1497    3.4774 H   0  0
    2.3582   -4.9542    2.3430 H   0  0
    2.4171   -4.5546    4.0484 H   0  0
    0.3894   -5.3459    3.4255 H   0  0
    4.3242   -3.2666    2.0631 H   0  0
    4.1453   -2.0652    4.6021 H   0  0
    3.8448   -0.4045    2.9796 H   0  0
    5.8866   -1.5351    1.4056 H   0  0
    3.7914   -1.4053    0.0934 H   0  0
    4.4493    0.8198    0.7330 H   0  0
   -0.5332   -2.1880   -3.4148 H   0  0
    1.5364   -3.1734   -3.3013 H   0  0
    1.6923   -2.9048   -1.5798 H   0  0
    2.1043   -1.6073   -2.7287 H   0  0
   -2.7316   -1.6791   -1.0463 H   0  0
   -2.6546   -2.0498   -3.4635 H   0  0
   -3.8580   -0.8807   -3.0861 H   0  0
   -2.5915    0.8158   -6.9305 H   0  0
   -0.9717    0.7688   -6.2556 H   0  0
   -2.2497   -1.4423   -7.9421 H   0  0
   -1.0224   -0.3370   -8.4768 H   0  0
   -1.6208   -3.4858   -6.8220 H   0  0
    0.1436   -4.9933   -6.0080 H   0  0
    3.5456   -3.9767   -5.6844 H   0  0
    3.3907   -0.8162   -6.6862 H   0  0
    1.2635   -0.3369   -7.2614 H   0  0
  1  2  1  0
  1 39  1  0
  1 40  1  0
  1 41  1  0
  2  3  1  0
  3  4  2  0
  3  5  1  0
  5  6  2  0
  5 24  1  0
  6  7  1  0
  6 42  1  0
  7  8  1  0
  8  9  1  0
  8 21  1  0
  8 43  1  0
  9 10  1  0
 10 11  1  0
 10 19  1  0
 10 44  1  0
 11 12  1  0
 12 13  1  0
 12 15  1  0
 12 45  1  0
 13 14  1  0
 13 46  1  0
 13 47  1  0
 14 48  1  0
 15 16  1  0
 15 17  1  0
 15 49  1  0
 16 50  1  0
 17 18  1  0
 17 19  1  0
 17 51  1  0
 18 52  1  0
 19 20  1  0
 19 53  1  0
 20 54  1  0
 21 22  2  0
 21 24  1  0
 22 23  1  0
 22 55  1  0
 23 56  1  0
 23 57  1  0
 23 58  1  0
 24 25  1  0
 24 59  1  0
 25 26  1  0
 25 60  1  0
 25 61  1  0
 26 27  2  0
 26 28  1  0
 28 29  1  0
 29 30  1  0
 29 62  1  0
 29 63  1  0
 30 31  1  0
 30 64  1  0
 30 65  1  0
 31 32  2  0
 31 38  1  0
 32 33  1  0
 32 66  1  0
 33 34  2  0
 33 67  1  0
 34 35  1  0
 34 36  1  0
 35 68  1  0
 36 37  1  0
 36 38  2  0
 37 69  1  0
 38 70  1  0
M  END
> <Mol2_MolInfo_Name>
9926

> <Mol2_MolInfo_Type>
SMALL

> <Mol2_MolInfo_Charge>
USER_CHARGES

> <Mol2_Substructures>
     1 UNK         1 GROUP             0       ****    0 ROOT    

> <Name>
9926

$$$$
9926
  SciTegic06232017503D

 70 72  0  0  0  0            999 V2000
   -5.9086    0.3248    3.4345 C   0  0
   -4.6824    0.0845    2.7584 O   0  0
   -4.0402    1.0811    2.0988 C   0  0
   -4.4647    2.2396    2.0391 O   0  0
   -2.7805    0.6511    1.4523 C   0  0
   -2.0551    1.5450    0.7484 C   0  0
   -0.8962    1.3087    0.0766 O   0  0
   -0.3680   -0.0104    0.1099 C   0  0  1  0  0  0
    1.0272    0.0823    0.0404 O   0  0
    1.5635    0.1709   -1.2503 C   0  0  1  0  0  0
    1.1101    1.3366   -1.8910 O   0  0
    1.5201    1.4245   -3.2591 C   0  0  1  0  0  0
    0.7597    2.5982   -3.9104 C   0  0
   -0.6275    2.3301   -3.9454 O   0  0
    3.0575    1.6043   -3.2928 C   0  0  2  0  0  0
    3.5463    1.6674   -4.6222 O   0  0
    3.7559    0.4828   -2.4902 C   0  0  1  0  0  0
    5.1475    0.7228   -2.3607 O   0  0
    3.0938    0.2489   -1.1081 C   0  0  2  0  0  0
    3.6203   -0.9099   -0.4861 O   0  0
   -0.7982   -0.8104    1.3628 C   0  0
    0.0056   -1.4750    2.2271 C   0  0
    1.5115   -1.6367    2.1780 C   0  0
   -2.3238   -0.8062    1.5720 C   0  0  2  0  0  0
   -3.0838   -1.6794    0.5338 C   0  0
   -2.7253   -3.1686    0.5476 C   0  0
   -3.4902   -4.0094    1.0223 O   0  0
   -1.5272   -3.4080   -0.0178 O   0  0
   -1.0404   -4.7317   -0.1921 C   0  0
    0.4679   -4.7078   -0.5120 C   0  0
    0.9131   -3.9481   -1.7649 C   0  0
    2.2843   -3.8024   -1.9973 C   0  0
    2.7472   -3.1233   -3.1232 C   0  0
    1.8427   -2.5695   -4.0295 C   0  0
    2.3209   -1.8912   -5.1227 O   0  0
    0.4669   -2.7069   -3.8084 C   0  0
   -0.4449   -2.1636   -4.6776 O   0  0
    0.0083   -3.4009   -2.6867 C   0  0
   -6.2587   -0.5953    3.9027 H   0  0
   -6.6778    0.6671    2.7405 H   0  0
   -5.7848    1.0773    4.2149 H   0  0
   -2.3334    2.5831    0.6304 H   0  0
   -0.7593   -0.4941   -0.7889 H   0  0
    1.2367   -0.6875   -1.8416 H   0  0
    1.2498    0.5082   -3.7905 H   0  0
    0.9365    3.5277   -3.3679 H   0  0
    1.0941    2.7544   -4.9364 H   0  0
   -0.9552    2.3104   -3.0429 H   0  0
    3.3006    2.5651   -2.8350 H   0  0
    3.4112    0.8130   -5.0389 H   0  0
    3.6748   -0.4409   -3.0638 H   0  0
    5.2729    1.5425   -1.8764 H   0  0
    3.3149    1.0912   -0.4495 H   0  0
    4.5656   -0.9395   -0.6526 H   0  0
   -0.4565   -1.9809    3.0628 H   0  0
    1.8391   -2.3257    2.9566 H   0  0
    2.0114   -0.6818    2.3430 H   0  0
    1.8236   -2.0502    1.2193 H   0  0
   -2.5383   -1.1823    2.5753 H   0  0
   -4.1566   -1.5977    0.7112 H   0  0
   -2.9222   -1.2981   -0.4750 H   0  0
   -1.2020   -5.3155    0.7160 H   0  0
   -1.5938   -5.2229   -0.9936 H   0  0
    0.9935   -4.2844    0.3452 H   0  0
    0.8180   -5.7364   -0.6061 H   0  0
    2.9989   -4.2165   -1.3007 H   0  0
    3.8108   -3.0206   -3.2816 H   0  0
    3.2795   -1.9015   -5.1769 H   0  0
   -0.0294   -1.7200   -5.4210 H   0  0
   -1.0569   -3.5031   -2.5431 H   0  0
  1  2  1  0
  1 39  1  0
  1 40  1  0
  1 41  1  0
  2  3  1  0
  3  4  2  0
  3  5  1  0
  5  6  2  0
  5 24  1  0
  6  7  1  0
  6 42  1  0
  7  8  1  0
  8  9  1  0
  8 21  1  0
  8 43  1  0
  9 10  1  0
 10 11  1  0
 10 19  1  0
 10 44  1  0
 11 12  1  0
 12 13  1  0
 12 15  1  0
 12 45  1  0
 13 14  1  0
 13 46  1  0
 13 47  1  0
 14 48  1  0
 15 16  1  0
 15 17  1  0
 15 49  1  0
 16 50  1  0
 17 18  1  0
 17 19  1  0
 17 51  1  0
 18 52  1  0
 19 20  1  0
 19 53  1  0
 20 54  1  0
 21 22  2  0
 21 24  1  0
 22 23  1  0
 22 55  1  0
 23 56  1  0
 23 57  1  0
 23 58  1  0
 24 25  1  0
 24 59  1  0
 25 26  1  0
 25 60  1  0
 25 61  1  0
 26 27  2  0
 26 28  1  0
 28 29  1  0
 29 30  1  0
 29 62  1  0
 29 63  1  0
 30 31  1  0
 30 64  1  0
 30 65  1  0
 31 32  2  0
 31 38  1  0
 32 33  1  0
 32 66  1  0
 33 34  2  0
 33 67  1  0
 34 35  1  0
 34 36  1  0
 35 68  1  0
 36 37  1  0
 36 38  2  0
 37 69  1  0
 38 70  1  0
M  END
> <Mol2_MolInfo_Name>
9926

> <Mol2_MolInfo_Type>
SMALL

> <Mol2_MolInfo_Charge>
USER_CHARGES

> <Mol2_Substructures>
     1 UNK         1 GROUP             0       ****    0 ROOT    

> <Name>
9926

$$$$
9926
  SciTegic06232017503D

 70 72  0  0  0  0            999 V2000
   -5.5243    2.4157   -1.6615 C   0  0
   -4.3181    1.7699   -1.2805 O   0  0
   -4.2888    0.4321   -1.0472 C   0  0
   -5.2677   -0.3098   -1.1621 O   0  0
   -2.9520   -0.0823   -0.6924 C   0  0
   -2.1171    0.6842    0.0283 C   0  0
   -0.8995    0.3487    0.5014 O   0  0
   -0.4887   -1.0003    0.3652 C   0  0  2  0  0  0
    0.9112   -1.0498    0.3720 O   0  0
    1.5520   -0.3956    1.4377 C   0  0  2  0  0  0
    1.6825    0.9849    1.1936 O   0  0
    2.3945    1.3094   -0.0119 C   0  0  1  0  0  0
    2.2913    2.8320   -0.2389 C   0  0
    0.9491    3.2093   -0.4743 O   0  0
    3.8536    0.8048    0.1046 C   0  0  2  0  0  0
    4.6032    1.0830   -1.0657 O   0  0
    3.8695   -0.7045    0.4337 C   0  0  1  0  0  0
    5.1903   -1.1664    0.6656 O   0  0
    2.9445   -1.0184    1.6334 C   0  0  2  0  0  0
    2.8572   -2.4040    1.9146 O   0  0
   -1.0383   -1.7448   -0.8817 C   0  0
   -0.3312   -2.6721   -1.5822 C   0  0
    1.0693   -3.1975   -1.3246 C   0  0
   -2.5260   -1.4548   -1.2381 C   0  0  2  0  0  0
   -2.8420   -1.6117   -2.7714 C   0  0
   -2.1263   -0.6412   -3.7300 C   0  0
   -1.3719    0.2479   -3.3281 O   0  0
   -2.4401   -0.8858   -5.0223 O   0  0
   -1.8964   -0.1027   -6.0850 C   0  0
   -0.6327   -0.7345   -6.7067 C   0  0
    0.5619   -0.8226   -5.7647 C   0  0
    1.0757   -2.0691   -5.3952 C   0  0
    2.1699   -2.1515   -4.5352 C   0  0
    2.7533   -0.9899   -4.0275 C   0  0
    3.8265   -1.0975   -3.1806 O   0  0
    2.2393    0.2626   -4.3869 C   0  0
    2.7856    1.4197   -3.8910 O   0  0
    1.1539    0.3414   -5.2622 C   0  0
   -5.3433    3.4803   -1.8095 H   0  0
   -6.2882    2.3047   -0.8906 H   0  0
   -5.9108    2.0041   -2.5952 H   0  0
   -2.3339    1.7058    0.3084 H   0  0
   -0.8529   -1.4768    1.2779 H   0  0
    0.9506   -0.4579    2.3477 H   0  0
    1.9214    0.8187   -0.8666 H   0  0
    2.6784    3.3813    0.6198 H   0  0
    2.8769    3.1347   -1.1074 H   0  0
    0.6556    2.7977   -1.2906 H   0  0
    4.3459    1.3469    0.9142 H   0  0
    5.5168    0.8347   -0.9039 H   0  0
    3.5138   -1.2478   -0.4429 H   0  0
    5.1409   -2.0036    1.1337 H   0  0
    3.3613   -0.5603    2.5325 H   0  0
    2.6873   -2.8697    1.0922 H   0  0
   -0.7897   -3.1605   -2.4263 H   0  0
    1.2248   -4.1276   -1.8716 H   0  0
    1.2298   -3.4090   -0.2677 H   0  0
    1.8153   -2.4814   -1.6654 H   0  0
   -3.1181   -2.1968   -0.7000 H   0  0
   -2.6389   -2.6300   -3.0989 H   0  0
   -3.9118   -1.4891   -2.9363 H   0  0
   -2.6637   -0.0363   -6.8565 H   0  0
   -1.7028    0.9239   -5.7679 H   0  0
   -0.8772   -1.7238   -7.0969 H   0  0
   -0.3292   -0.1460   -7.5731 H   0  0
    0.6296   -2.9777   -5.7724 H   0  0
    2.5592   -3.1205   -4.2581 H   0  0
    4.1351   -0.2433   -2.8673 H   0  0
    2.3439    2.2090   -4.2122 H   0  0
    0.7590    1.3078   -5.5413 H   0  0
  1  2  1  0
  1 39  1  0
  1 40  1  0
  1 41  1  0
  2  3  1  0
  3  4  2  0
  3  5  1  0
  5  6  2  0
  5 24  1  0
  6  7  1  0
  6 42  1  0
  7  8  1  0
  8  9  1  0
  8 21  1  0
  8 43  1  0
  9 10  1  0
 10 11  1  0
 10 19  1  0
 10 44  1  0
 11 12  1  0
 12 13  1  0
 12 15  1  0
 12 45  1  0
 13 14  1  0
 13 46  1  0
 13 47  1  0
 14 48  1  0
 15 16  1  0
 15 17  1  0
 15 49  1  0
 16 50  1  0
 17 18  1  0
 17 19  1  0
 17 51  1  0
 18 52  1  0
 19 20  1  0
 19 53  1  0
 20 54  1  0
 21 22  2  0
 21 24  1  0
 22 23  1  0
 22 55  1  0
 23 56  1  0
 23 57  1  0
 23 58  1  0
 24 25  1  0
 24 59  1  0
 25 26  1  0
 25 60  1  0
 25 61  1  0
 26 27  2  0
 26 28  1  0
 28 29  1  0
 29 30  1  0
 29 62  1  0
 29 63  1  0
 30 31  1  0
 30 64  1  0
 30 65  1  0
 31 32  2  0
 31 38  1  0
 32 33  1  0
 32 66  1  0
 33 34  2  0
 33 67  1  0
 34 35  1  0
 34 36  1  0
 35 68  1  0
 36 37  1  0
 36 38  2  0
 37 69  1  0
 38 70  1  0
M  END
> <Mol2_MolInfo_Name>
9926

> <Mol2_MolInfo_Type>
SMALL

> <Mol2_MolInfo_Charge>
USER_CHARGES

> <Mol2_Substructures>
     1 UNK         1 GROUP             0       ****    0 ROOT    

> <Name>
9926

$$$$
9926
  SciTegic06232017503D

 70 72  0  0  0  0            999 V2000
   -5.9198    2.8392    0.8908 C   0  0
   -4.5724    2.4313    0.6979 O   0  0
   -4.1741    1.1672    1.0015 C   0  0
   -4.9348    0.3071    1.4543 O   0  0
   -2.7383    0.9032    0.7530 C   0  0
   -1.9363    1.8265    0.1771 C   0  0
   -0.6100    1.6978   -0.0985 O   0  0
   -0.0047    0.4481    0.2009 C   0  0  1  0  0  0
    1.3613    0.6328    0.4256 O   0  0
    2.1175    1.0001   -0.6991 C   0  0  2  0  0  0
    2.3253   -0.0799   -1.5773 O   0  0
    3.0173   -1.1992   -1.0048 C   0  0  1  0  0  0
    3.0457   -2.3362   -2.0505 C   0  0
    3.8142   -1.9982   -3.1888 O   0  0
    4.4161   -0.7944   -0.4709 C   0  0  2  0  0  0
    5.0361   -1.8757    0.2044 O   0  0
    4.3177    0.4453    0.4437 C   0  0  1  0  0  0
    5.6052    0.9194    0.8049 O   0  0
    3.4688    1.5562   -0.2189 C   0  0  2  0  0  0
    3.2935    2.6862    0.6183 O   0  0
   -0.6607   -0.2649    1.4064 C   0  0
   -0.0523   -0.7074    2.5331 C   0  0
    1.4134   -0.6258    2.9109 C   0  0
   -2.1787   -0.4434    1.2234 C   0  0  2  0  0  0
   -2.5265   -1.5721    0.2139 C   0  0
   -2.1015   -2.9683    0.6795 C   0  0
   -2.8802   -3.7036    1.2887 O   0  0
   -0.8227   -3.2515    0.3571 O   0  0
   -0.2347   -4.4870    0.7393 C   0  0
    1.2403   -4.4911    0.3168 C   0  0
    1.9404   -5.7992    0.6457 C   0  0
    1.9639   -6.8380   -0.2893 C   0  0
    2.6074   -8.0385    0.0102 C   0  0
    3.2323   -8.2112    1.2467 C   0  0
    3.8591   -9.4017    1.5169 O   0  0
    3.2115   -7.1732    2.1885 C   0  0
    3.8167   -7.3154    3.4120 O   0  0
    2.5661   -5.9722    1.8843 C   0  0
   -6.0385    3.8792    0.5872 H   0  0
   -6.2072    2.7564    1.9399 H   0  0
   -6.6022    2.2310    0.2952 H   0  0
   -2.2677    2.8086   -0.1291 H   0  0
   -0.1242   -0.1528   -0.7037 H   0  0
    1.5768    1.7326   -1.3025 H   0  0
    2.4193   -1.5630   -0.1672 H   0  0
    3.4589   -3.2466   -1.6152 H   0  0
    2.0326   -2.5789   -2.3726 H   0  0
    3.7970   -2.7385   -3.7999 H   0  0
    5.0606   -0.5484   -1.3166 H   0  0
    5.9298   -1.6134    0.4389 H   0  0
    3.8400    0.1541    1.3805 H   0  0
    6.0577    1.2114    0.0100 H   0  0
    3.9924    1.9202   -1.1048 H   0  0
    2.8897    3.3894    0.1043 H   0  0
   -0.6653   -1.1878    3.2823 H   0  0
    1.5574   -0.9972    3.9256 H   0  0
    1.7727    0.4031    2.8835 H   0  0
    2.0161   -1.2414    2.2432 H   0  0
   -2.6217   -0.6919    2.1918 H   0  0
   -3.6042   -1.5960    0.0497 H   0  0
   -2.0801   -1.3691   -0.7598 H   0  0
   -0.3143   -4.6235    1.8194 H   0  0
   -0.7666   -5.3116    0.2618 H   0  0
    1.3191   -4.3070   -0.7551 H   0  0
    1.7723   -3.6684    0.7971 H   0  0
    1.4839   -6.7175   -1.2498 H   0  0
    2.6184   -8.8332   -0.7216 H   0  0
    3.8025  -10.0279    0.7919 H   0  0
    3.7354   -6.5340    3.9633 H   0  0
    2.5496   -5.1719    2.6106 H   0  0
  1  2  1  0
  1 39  1  0
  1 40  1  0
  1 41  1  0
  2  3  1  0
  3  4  2  0
  3  5  1  0
  5  6  2  0
  5 24  1  0
  6  7  1  0
  6 42  1  0
  7  8  1  0
  8  9  1  0
  8 21  1  0
  8 43  1  0
  9 10  1  0
 10 11  1  0
 10 19  1  0
 10 44  1  0
 11 12  1  0
 12 13  1  0
 12 15  1  0
 12 45  1  0
 13 14  1  0
 13 46  1  0
 13 47  1  0
 14 48  1  0
 15 16  1  0
 15 17  1  0
 15 49  1  0
 16 50  1  0
 17 18  1  0
 17 19  1  0
 17 51  1  0
 18 52  1  0
 19 20  1  0
 19 53  1  0
 20 54  1  0
 21 22  2  0
 21 24  1  0
 22 23  1  0
 22 55  1  0
 23 56  1  0
 23 57  1  0
 23 58  1  0
 24 25  1  0
 24 59  1  0
 25 26  1  0
 25 60  1  0
 25 61  1  0
 26 27  2  0
 26 28  1  0
 28 29  1  0
 29 30  1  0
 29 62  1  0
 29 63  1  0
 30 31  1  0
 30 64  1  0
 30 65  1  0
 31 32  2  0
 31 38  1  0
 32 33  1  0
 32 66  1  0
 33 34  2  0
 33 67  1  0
 34 35  1  0
 34 36  1  0
 35 68  1  0
 36 37  1  0
 36 38  2  0
 37 69  1  0
 38 70  1  0
M  END
> <Mol2_MolInfo_Name>
9926

> <Mol2_MolInfo_Type>
SMALL

> <Mol2_MolInfo_Charge>
USER_CHARGES

> <Mol2_Substructures>
     1 UNK         1 GROUP             0       ****    0 ROOT    

> <Name>
9926

$$$$
9926
  SciTegic06232017503D

 70 72  0  0  0  0            999 V2000
   -4.7930    3.2243   -1.5231 C   0  0
   -3.6394    2.4369   -1.2662 O   0  0
   -3.7376    1.0931   -1.0999 C   0  0
   -4.7955    0.4622   -1.1660 O   0  0
   -2.4391    0.4312   -0.8845 C   0  0
   -1.5209    1.0269   -0.1000 C   0  0
   -0.3218    0.5236    0.2795 O   0  0
   -0.0362   -0.8092   -0.1044 C   0  0  2  0  0  0
    1.3511   -0.9670   -0.0935 O   0  0
    1.9248   -1.1460    1.1682 C   0  0  1  0  0  0
    1.7887   -2.4962    1.5452 O   0  0
    2.3404   -2.8375    2.8256 C   0  0  2  0  0  0
    1.5869   -2.1964    4.0214 C   0  0
    0.2189   -2.5493    3.9957 O   0  0
    3.8670   -2.5798    2.7957 C   0  0  2  0  0  0
    4.4916   -2.9045    4.0257 O   0  0
    4.1773   -1.1385    2.3373 C   0  0  1  0  0  0
    5.5738   -0.9408    2.1862 O   0  0
    3.4172   -0.7950    1.0325 C   0  0  2  0  0  0
    3.5889    0.5679    0.6816 O   0  0
   -0.6270   -1.2122   -1.4794 C   0  0
    0.0664   -1.8220   -2.4793 C   0  0
    1.5241   -2.2437   -2.5121 C   0  0
   -2.1512   -0.9113   -1.5838 C   0  0  2  0  0  0
   -2.7371   -1.0278   -3.0370 C   0  0
   -2.1958   -0.0500   -4.0975 C   0  0
   -1.7287    1.0531   -3.8060 O   0  0
   -2.2534   -0.5797   -5.3348 O   0  0
   -1.7190    0.1133   -6.4581 C   0  0
   -1.3141   -0.8955   -7.5458 C   0  0
   -0.2516   -1.8798   -7.0727 C   0  0
   -0.6091   -3.1793   -6.7009 C   0  0
    0.3613   -4.0730   -6.2486 C   0  0
    1.6967   -3.6756   -6.1638 C   0  0
    2.6341   -4.5693   -5.7113 O   0  0
    2.0610   -2.3740   -6.5331 C   0  0
    3.3657   -1.9560   -6.4530 O   0  0
    1.0865   -1.4823   -6.9868 C   0  0
   -4.5105    4.2719   -1.6266 H   0  0
   -5.5115    3.1445   -0.7061 H   0  0
   -5.2816    2.9115   -2.4470 H   0  0
   -1.6495    2.0102    0.3311 H   0  0
   -0.4825   -1.4315    0.6767 H   0  0
    1.4195   -0.5284    1.9141 H   0  0
    2.2065   -3.9169    2.9172 H   0  0
    2.0018   -2.5486    4.9662 H   0  0
    1.6784   -1.1110    4.0309 H   0  0
    0.1423   -3.4911    4.1653 H   0  0
    4.3025   -3.2645    2.0650 H   0  0
    5.4424   -2.8336    3.9091 H   0  0
    3.8649   -0.4552    3.1295 H   0  0
    5.7135   -0.1627    1.6403 H   0  0
    3.8171   -1.3871    0.2064 H   0  0
    3.4433    1.1066    1.4629 H   0  0
   -0.4416   -2.0848   -3.3932 H   0  0
    1.7070   -2.8764   -3.3800 H   0  0
    1.7943   -2.8226   -1.6287 H   0  0
    2.1755   -1.3732   -2.5925 H   0  0
   -2.6527   -1.6719   -0.9834 H   0  0
   -2.5905   -2.0466   -3.3969 H   0  0
   -3.8188   -0.9049   -3.0123 H   0  0
   -2.4664    0.8087   -6.8417 H   0  0
   -0.8437    0.7025   -6.1770 H   0  0
   -2.1924   -1.4381   -7.8998 H   0  0
   -0.9336   -0.3616   -8.4174 H   0  0
   -1.6400   -3.4980   -6.7551 H   0  0
    0.0725   -5.0737   -5.9615 H   0  0
    3.5176   -4.1938   -5.6880 H   0  0
    3.4833   -1.0446   -6.7308 H   0  0
    1.3667   -0.4765   -7.2663 H   0  0
  1  2  1  0
  1 39  1  0
  1 40  1  0
  1 41  1  0
  2  3  1  0
  3  4  2  0
  3  5  1  0
  5  6  2  0
  5 24  1  0
  6  7  1  0
  6 42  1  0
  7  8  1  0
  8  9  1  0
  8 21  1  0
  8 43  1  0
  9 10  1  0
 10 11  1  0
 10 19  1  0
 10 44  1  0
 11 12  1  0
 12 13  1  0
 12 15  1  0
 12 45  1  0
 13 14  1  0
 13 46  1  0
 13 47  1  0
 14 48  1  0
 15 16  1  0
 15 17  1  0
 15 49  1  0
 16 50  1  0
 17 18  1  0
 17 19  1  0
 17 51  1  0
 18 52  1  0
 19 20  1  0
 19 53  1  0
 20 54  1  0
 21 22  2  0
 21 24  1  0
 22 23  1  0
 22 55  1  0
 23 56  1  0
 23 57  1  0
 23 58  1  0
 24 25  1  0
 24 59  1  0
 25 26  1  0
 25 60  1  0
 25 61  1  0
 26 27  2  0
 26 28  1  0
 28 29  1  0
 29 30  1  0
 29 62  1  0
 29 63  1  0
 30 31  1  0
 30 64  1  0
 30 65  1  0
 31 32  2  0
 31 38  1  0
 32 33  1  0
 32 66  1  0
 33 34  2  0
 33 67  1  0
 34 35  1  0
 34 36  1  0
 35 68  1  0
 36 37  1  0
 36 38  2  0
 37 69  1  0
 38 70  1  0
M  END
> <Mol2_MolInfo_Name>
9926

> <Mol2_MolInfo_Type>
SMALL

> <Mol2_MolInfo_Charge>
USER_CHARGES

> <Mol2_Substructures>
     1 UNK         1 GROUP             0       ****    0 ROOT    

> <Name>
9926

$$$$
9926
  SciTegic06232017503D

 70 72  0  0  0  0            999 V2000
   -4.9550    3.3683    2.1260 C   0  0
   -3.8116    2.7328    1.5723 O   0  0
   -3.3597    1.5532    2.0728 C   0  0
   -3.8949    0.9582    3.0117 O   0  0
   -2.1855    1.0128    1.3612 C   0  0
   -1.3358    1.8325    0.7072 C   0  0
   -0.2322    1.4692    0.0026 O   0  0
    0.0713    0.0825   -0.0812 C   0  0  1  0  0  0
    1.4566   -0.0797   -0.1771 O   0  0
    2.0601    0.4616   -1.3187 C   0  0  1  0  0  0
    2.3432    1.8223   -1.0897 O   0  0
    2.9836    2.5137   -2.1729 C   0  0  2  0  0  0
    2.0852    2.6816   -3.4273 C   0  0
    0.8840    3.3478   -3.0962 O   0  0
    4.3620    1.8592   -2.4362 C   0  0  2  0  0  0
    5.0669    2.4953   -3.4888 O   0  0
    4.2166    0.3386   -2.6560 C   0  0  1  0  0  0
    5.4817   -0.2904   -2.7832 O   0  0
    3.3763   -0.3099   -1.5275 C   0  0  2  0  0  0
    3.1275   -1.6804   -1.7918 O   0  0
   -0.4812   -0.7469    1.1063 C   0  0
    0.2062   -1.6119    1.8912 C   0  0
    1.6628   -2.0257    1.7978 C   0  0
   -1.9771   -0.5064    1.3575 C   0  0  2  0  0  0
   -2.8120   -1.2201    0.2563 C   0  0
   -4.3068   -1.3865    0.5594 C   0  0
   -4.7097   -1.7159    1.6770 O   0  0
   -5.0814   -1.1163   -0.5159 O   0  0
   -6.5032   -1.1928   -0.4468 C   0  0
   -7.0122   -2.6447   -0.5324 C   0  0
   -8.5303   -2.7241   -0.5159 C   0  0
   -9.2195   -2.7366    0.7003 C   0  0
  -10.6126   -2.8064    0.7179 C   0  0
  -11.3280   -2.8642   -0.4797 C   0  0
  -12.6982   -2.9324   -0.4389 O   0  0
  -10.6420   -2.8514   -1.7015 C   0  0
  -11.3207   -2.9072   -2.8927 O   0  0
   -9.2474   -2.7806   -1.7150 C   0  0
   -5.1502    4.3025    1.5995 H   0  0
   -4.8043    3.5979    3.1819 H   0  0
   -5.8376    2.7340    2.0315 H   0  0
   -1.4407    2.9081    0.6792 H   0  0
   -0.3843   -0.2511   -1.0159 H   0  0
    1.4000    0.3939   -2.1860 H   0  0
    3.1801    3.5189   -1.7956 H   0  0
    2.5959    3.2772   -4.1845 H   0  0
    1.8498    1.7263   -3.8948 H   0  0
    1.0921    4.2537   -2.8564 H   0  0
    4.9767    2.0130   -1.5470 H   0  0
    5.9453    2.1108   -3.5425 H   0  0
    3.7119    0.1742   -3.6099 H   0  0
    5.9528   -0.2025   -1.9511 H   0  0
    3.9297   -0.2672   -0.5868 H   0  0
    2.9607   -1.7858   -2.7314 H   0  0
   -0.3289   -2.1036    2.6911 H   0  0
    1.8441   -2.8909    2.4357 H   0  0
    2.3137   -1.2186    2.1342 H   0  0
    1.9337   -2.3092    0.7810 H   0  0
   -2.2324   -0.9203    2.3366 H   0  0
   -2.6912   -0.7024   -0.6962 H   0  0
   -2.4193   -2.2254    0.1010 H   0  0
   -6.8679   -0.7060    0.4598 H   0  0
   -6.9045   -0.6220   -1.2847 H   0  0
   -6.6331   -3.1227   -1.4372 H   0  0
   -6.6198   -3.2384    0.2946 H   0  0
   -8.6767   -2.6901    1.6334 H   0  0
  -11.1327   -2.8146    1.6647 H   0  0
  -13.0460   -2.9371    0.4558 H   0  0
  -12.2717   -2.9623   -2.7718 H   0  0
   -8.7214   -2.7685   -2.6590 H   0  0
  1  2  1  0
  1 39  1  0
  1 40  1  0
  1 41  1  0
  2  3  1  0
  3  4  2  0
  3  5  1  0
  5  6  2  0
  5 24  1  0
  6  7  1  0
  6 42  1  0
  7  8  1  0
  8  9  1  0
  8 21  1  0
  8 43  1  0
  9 10  1  0
 10 11  1  0
 10 19  1  0
 10 44  1  0
 11 12  1  0
 12 13  1  0
 12 15  1  0
 12 45  1  0
 13 14  1  0
 13 46  1  0
 13 47  1  0
 14 48  1  0
 15 16  1  0
 15 17  1  0
 15 49  1  0
 16 50  1  0
 17 18  1  0
 17 19  1  0
 17 51  1  0
 18 52  1  0
 19 20  1  0
 19 53  1  0
 20 54  1  0
 21 22  2  0
 21 24  1  0
 22 23  1  0
 22 55  1  0
 23 56  1  0
 23 57  1  0
 23 58  1  0
 24 25  1  0
 24 59  1  0
 25 26  1  0
 25 60  1  0
 25 61  1  0
 26 27  2  0
 26 28  1  0
 28 29  1  0
 29 30  1  0
 29 62  1  0
 29 63  1  0
 30 31  1  0
 30 64  1  0
 30 65  1  0
 31 32  2  0
 31 38  1  0
 32 33  1  0
 32 66  1  0
 33 34  2  0
 33 67  1  0
 34 35  1  0
 34 36  1  0
 35 68  1  0
 36 37  1  0
 36 38  2  0
 37 69  1  0
 38 70  1  0
M  END
> <Mol2_MolInfo_Name>
9926

> <Mol2_MolInfo_Type>
SMALL

> <Mol2_MolInfo_Charge>
USER_CHARGES

> <Mol2_Substructures>
     1 UNK         1 GROUP             0       ****    0 ROOT    

> <Name>
9926

$$$$
9926
  SciTegic06232017503D

 70 72  0  0  0  0            999 V2000
   -6.1224    2.1581   -1.8990 C   0  0
   -4.7775    1.8360   -1.5756 O   0  0
   -4.4251    0.5643   -1.2568 C   0  0
   -5.2102   -0.3865   -1.2346 O   0  0
   -2.9864    0.4018   -0.9816 C   0  0
   -2.3310    1.3680   -0.3092 C   0  0
   -1.0424    1.3380    0.1097 O   0  0
   -0.3436    0.1200   -0.0743 C   0  0  2  0  0  0
    1.0285    0.3805   -0.0279 O   0  0
    1.5495    0.7077    1.2292 C   0  0  2  0  0  0
    1.2483    2.0415    1.5623 O   0  0
    1.6644    2.3990    2.8870 C   0  0  2  0  0  0
    1.0526    3.7736    3.2333 C   0  0
    1.3065    4.1265    4.5789 O   0  0
    3.2150    2.3279    2.9877 C   0  0  2  0  0  0
    3.8516    3.3900    2.2967 O   0  0
    3.7295    0.9561    2.4878 C   0  0  1  0  0  0
    3.5285   -0.0450    3.4714 O   0  0
    3.0792    0.5439    1.1420 C   0  0  2  0  0  0
    3.6422    1.2583    0.0542 O   0  0
   -0.7214   -0.6194   -1.3819 C   0  0
    0.1638   -1.0696   -2.3125 C   0  0
    1.6766   -0.9491   -2.3255 C   0  0
   -2.2565   -0.8542   -1.4993 C   0  0  2  0  0  0
   -2.7304   -1.3431   -2.9153 C   0  0
   -2.5111   -0.3880   -4.1040 C   0  0
   -2.3803    0.8298   -3.9628 O   0  0
   -2.4246   -1.0615   -5.2666 O   0  0
   -2.0932   -0.3994   -6.4829 C   0  0
   -1.3615   -1.3778   -7.4174 C   0  0
   -0.0756   -1.9245   -6.8103 C   0  0
   -0.0687   -3.1739   -6.1825 C   0  0
    1.1015   -3.6634   -5.6034 C   0  0
    2.2748   -2.9088   -5.6473 C   0  0
    3.4127   -3.4058   -5.0640 O   0  0
    2.2741   -1.6556   -6.2742 C   0  0
    3.4121   -0.8903   -6.3233 O   0  0
    1.1002   -1.1690   -6.8534 C   0  0
   -6.2055    3.2231   -2.1158 H   0  0
   -6.7915    1.9270   -1.0688 H   0  0
   -6.4559    1.6051   -2.7783 H   0  0
   -2.7796    2.3090   -0.0222 H   0  0
   -0.6211   -0.5007    0.7813 H   0  0
    1.1170    0.0654    2.0016 H   0  0
    1.2345    1.6775    3.5863 H   0  0
    1.4335    4.5554    2.5752 H   0  0
   -0.0286    3.7423    3.0936 H   0  0
    2.2426    4.3153    4.6764 H   0  0
    3.5130    2.4663    4.0283 H   0  0
    3.6470    4.2148    2.7425 H   0  0
    4.8145    0.9916    2.3709 H   0  0
    4.3849   -0.3942    3.7297 H   0  0
    3.2910   -0.5070    0.9371 H   0  0
    3.2464    0.9335   -0.7579 H   0  0
   -0.2001   -1.6001   -3.1780 H   0  0
    2.0855   -1.4757   -3.1865 H   0  0
    2.1157   -1.3942   -1.4323 H   0  0
    1.9820    0.0946   -2.4032 H   0  0
   -2.4982   -1.6522   -0.7952 H   0  0
   -2.2439   -2.2922   -3.1421 H   0  0
   -3.7920   -1.5835   -2.8900 H   0  0
   -3.0050   -0.0299   -6.9535 H   0  0
   -1.4506    0.4648   -6.3017 H   0  0
   -2.0219   -2.2043   -7.6855 H   0  0
   -1.1255   -0.8809   -8.3593 H   0  0
   -0.9725   -3.7641   -6.1340 H   0  0
    1.0934   -4.6280   -5.1167 H   0  0
    4.1578   -2.8052   -5.1418 H   0  0
    3.2806   -0.0531   -6.7742 H   0  0
    1.0977   -0.1993   -7.3306 H   0  0
  1  2  1  0
  1 39  1  0
  1 40  1  0
  1 41  1  0
  2  3  1  0
  3  4  2  0
  3  5  1  0
  5  6  2  0
  5 24  1  0
  6  7  1  0
  6 42  1  0
  7  8  1  0
  8  9  1  0
  8 21  1  0
  8 43  1  0
  9 10  1  0
 10 11  1  0
 10 19  1  0
 10 44  1  0
 11 12  1  0
 12 13  1  0
 12 15  1  0
 12 45  1  0
 13 14  1  0
 13 46  1  0
 13 47  1  0
 14 48  1  0
 15 16  1  0
 15 17  1  0
 15 49  1  0
 16 50  1  0
 17 18  1  0
 17 19  1  0
 17 51  1  0
 18 52  1  0
 19 20  1  0
 19 53  1  0
 20 54  1  0
 21 22  2  0
 21 24  1  0
 22 23  1  0
 22 55  1  0
 23 56  1  0
 23 57  1  0
 23 58  1  0
 24 25  1  0
 24 59  1  0
 25 26  1  0
 25 60  1  0
 25 61  1  0
 26 27  2  0
 26 28  1  0
 28 29  1  0
 29 30  1  0
 29 62  1  0
 29 63  1  0
 30 31  1  0
 30 64  1  0
 30 65  1  0
 31 32  2  0
 31 38  1  0
 32 33  1  0
 32 66  1  0
 33 34  2  0
 33 67  1  0
 34 35  1  0
 34 36  1  0
 35 68  1  0
 36 37  1  0
 36 38  2  0
 37 69  1  0
 38 70  1  0
M  END
> <Mol2_MolInfo_Name>
9926

> <Mol2_MolInfo_Type>
SMALL

> <Mol2_MolInfo_Charge>
USER_CHARGES

> <Mol2_Substructures>
     1 UNK         1 GROUP             0       ****    0 ROOT    

> <Name>
9926

$$$$
9926
  SciTegic06232017503D

 70 72  0  0  0  0            999 V2000
   -5.9625    2.3144    1.3269 C   0  0
   -4.6111    2.0283    0.9945 O   0  0
   -4.0944    0.7842    1.1791 C   0  0
   -4.7446   -0.1595    1.6379 O   0  0
   -2.6706    0.6530    0.7964 C   0  0
   -2.0077    1.6491    0.1691 C   0  0
   -0.7068    1.6387   -0.2289 O   0  0
    0.0488    0.4626    0.0267 C   0  0  1  0  0  0
    1.3847    0.8271    0.2046 O   0  0
    2.0906    1.1050   -0.9696 C   0  0  2  0  0  0
    2.4861   -0.0908   -1.5968 O   0  0
    3.1206    0.1207   -2.8667 C   0  0  2  0  0  0
    3.3045   -1.2365   -3.5782 C   0  0
    2.0536   -1.7933   -3.9303 O   0  0
    4.4498    0.8990   -2.6633 C   0  0  2  0  0  0
    5.4626    0.0966   -2.0792 O   0  0
    4.2069    2.1826   -1.8324 C   0  0  1  0  0  0
    3.6238    3.1976   -2.6323 O   0  0
    3.3444    1.9077   -0.5740 C   0  0  2  0  0  0
    4.1012    1.2723    0.4429 O   0  0
   -0.4566   -0.3359    1.2520 C   0  0
    0.2671   -0.7365    2.3251 C   0  0
    1.7501   -0.5572    2.5877 C   0  0
   -1.9602   -0.6501    1.1693 C   0  0  2  0  0  0
   -2.2743   -1.7527    0.1194 C   0  0
   -1.7733   -3.1637    0.4551 C   0  0
   -1.3675   -3.4746    1.5770 O   0  0
   -1.8536   -3.9863   -0.6138 O   0  0
   -1.5304   -5.3728   -0.5178 C   0  0
   -2.6511   -6.2023    0.1463 C   0  0
   -3.9993   -6.0575   -0.5472 C   0  0
   -4.3402   -6.8997   -1.6092 C   0  0
   -5.5700   -6.7566   -2.2520 C   0  0
   -6.4671   -5.7690   -1.8407 C   0  0
   -7.6692   -5.6430   -2.4898 O   0  0
   -6.1303   -4.9213   -0.7773 C   0  0
   -6.9905   -3.9381   -0.3564 O   0  0
   -4.9006   -5.0710   -0.1335 C   0  0
   -6.1886    3.3549    1.0940 H   0  0
   -6.1454    2.1564    2.3909 H   0  0
   -6.6476    1.6825    0.7599 H   0  0
   -2.4542    2.5960   -0.0994 H   0  0
   -0.0437   -0.1429   -0.8786 H   0  0
    1.4566    1.6548   -1.6717 H   0  0
    2.4664    0.7290   -3.4966 H   0  0
    3.8856   -1.1117   -4.4926 H   0  0
    3.8476   -1.9423   -2.9485 H   0  0
    2.2056   -2.6378   -4.3611 H   0  0
    4.8554    1.1735   -3.6388 H   0  0
    6.2802    0.5996   -2.0611 H   0  0
    5.1649    2.6108   -1.5304 H   0  0
    2.7651    2.8943   -2.9358 H   0  0
    3.0133    2.8526   -0.1399 H   0  0
    3.5471    1.1858    1.2222 H   0  0
   -0.2476   -1.2734    3.1094 H   0  0
    2.0537   -1.1726    3.4348 H   0  0
    1.9731    0.4817    2.8315 H   0  0
    2.3476   -0.8647    1.7290 H   0  0
   -2.3096   -0.9804    2.1514 H   0  0
   -3.3551   -1.8318   -0.0007 H   0  0
   -1.8843   -1.4657   -0.8573 H   0  0
   -1.3674   -5.7416   -1.5308 H   0  0
   -0.5863   -5.5091    0.0127 H   0  0
   -2.3669   -7.2552    0.1625 H   0  0
   -2.7554   -5.9230    1.1957 H   0  0
   -3.6526   -7.6640   -1.9408 H   0  0
   -5.8231   -7.4130   -3.0719 H   0  0
   -8.2046   -4.9298   -2.1338 H   0  0
   -6.6398   -3.4203    0.3720 H   0  0
   -4.6397   -4.4143    0.6843 H   0  0
  1  2  1  0
  1 39  1  0
  1 40  1  0
  1 41  1  0
  2  3  1  0
  3  4  2  0
  3  5  1  0
  5  6  2  0
  5 24  1  0
  6  7  1  0
  6 42  1  0
  7  8  1  0
  8  9  1  0
  8 21  1  0
  8 43  1  0
  9 10  1  0
 10 11  1  0
 10 19  1  0
 10 44  1  0
 11 12  1  0
 12 13  1  0
 12 15  1  0
 12 45  1  0
 13 14  1  0
 13 46  1  0
 13 47  1  0
 14 48  1  0
 15 16  1  0
 15 17  1  0
 15 49  1  0
 16 50  1  0
 17 18  1  0
 17 19  1  0
 17 51  1  0
 18 52  1  0
 19 20  1  0
 19 53  1  0
 20 54  1  0
 21 22  2  0
 21 24  1  0
 22 23  1  0
 22 55  1  0
 23 56  1  0
 23 57  1  0
 23 58  1  0
 24 25  1  0
 24 59  1  0
 25 26  1  0
 25 60  1  0
 25 61  1  0
 26 27  2  0
 26 28  1  0
 28 29  1  0
 29 30  1  0
 29 62  1  0
 29 63  1  0
 30 31  1  0
 30 64  1  0
 30 65  1  0
 31 32  2  0
 31 38  1  0
 32 33  1  0
 32 66  1  0
 33 34  2  0
 33 67  1  0
 34 35  1  0
 34 36  1  0
 35 68  1  0
 36 37  1  0
 36 38  2  0
 37 69  1  0
 38 70  1  0
M  END
> <Mol2_MolInfo_Name>
9926

> <Mol2_MolInfo_Type>
SMALL

> <Mol2_MolInfo_Charge>
USER_CHARGES

> <Mol2_Substructures>
     1 UNK         1 GROUP             0       ****    0 ROOT    

> <Name>
9926

$$$$
9926
  SciTegic06232017503D

 70 72  0  0  0  0            999 V2000
   -5.9402    2.0864   -1.2458 C   0  0
   -4.5726    1.8144   -0.9760 O   0  0
   -4.1346    0.5380   -0.8234 C   0  0
   -4.8591   -0.4561   -0.9176 O   0  0
   -2.6823    0.4318   -0.5864 C   0  0
   -2.0614    1.3744    0.1405 C   0  0
   -0.7676    1.4041    0.5207 O   0  0
    0.0458    0.2870    0.2163 C   0  0  2  0  0  0
    1.3396    0.7668   -0.0095 O   0  0
    2.0367    1.1806    1.1299 C   0  0  1  0  0  0
    2.5248    0.0528    1.8154 O   0  0
    3.2202    0.3731    3.0257 C   0  0  1  0  0  0
    3.4556   -0.9346    3.8117 C   0  0
    4.0309   -0.6785    5.0774 O   0  0
    4.5076    1.1653    2.6755 C   0  0  1  0  0  0
    5.4705    0.3502    2.0226 O   0  0
    4.1340    2.4074    1.8363 C   0  0  1  0  0  0
    5.2768    3.1469    1.4389 O   0  0
    3.2228    2.0330    0.6398 C   0  0  2  0  0  0
    2.7732    3.1849   -0.0534 O   0  0
   -0.3902   -0.5869   -0.9905 C   0  0
    0.4886   -1.2970   -1.7475 C   0  0
    1.9951   -1.4227   -1.5982 C   0  0
   -1.9193   -0.7327   -1.2317 C   0  0  2  0  0  0
   -2.2916   -0.9373   -2.7462 C   0  0
   -1.9208    0.1993   -3.7172 C   0  0
   -1.4960    1.2906   -3.3301 O   0  0
   -2.1083   -0.1604   -5.0030 O   0  0
   -1.8153    0.7494   -6.0560 C   0  0
   -2.0170    0.0527   -7.4141 C   0  0
   -1.6295    0.8777   -8.6412 C   0  0
   -1.5737    2.2780   -8.6116 C   0  0
   -1.2220    2.9958   -9.7545 C   0  0
   -0.9243    2.3260  -10.9414 C   0  0
   -0.5792    3.0531  -12.0525 O   0  0
   -0.9825    0.9275  -10.9835 C   0  0
   -0.6966    0.2432  -12.1383 O   0  0
   -1.3364    0.2129   -9.8371 C   0  0
   -6.0948    3.1622   -1.3283 H   0  0
   -6.5796    1.7114   -0.4455 H   0  0
   -6.2517    1.6256   -2.1844 H   0  0
   -2.5575    2.2558    0.5226 H   0  0
    0.0130   -0.3134    1.1287 H   0  0
    1.3841    1.7296    1.8152 H   0  0
    2.5721    1.0031    3.6406 H   0  0
    2.5053   -1.4452    3.9722 H   0  0
    4.0935   -1.6230    3.2564 H   0  0
    4.9377   -0.3892    4.9519 H   0  0
    4.9861    1.4968    3.5985 H   0  0
    5.8163   -0.2842    2.6545 H   0  0
    3.5760    3.0863    2.4842 H   0  0
    5.8087    2.5933    0.8618 H   0  0
    3.7835    1.4323   -0.0793 H   0  0
    2.5523    3.8627    0.5894 H   0  0
    0.1169   -1.9047   -2.5562 H   0  0
    2.3242   -2.3852   -1.9906 H   0  0
    2.3150   -1.3761   -0.5579 H   0  0
    2.4992   -0.6387   -2.1635 H   0  0
   -2.2260   -1.6318   -0.6945 H   0  0
   -1.8516   -1.8612   -3.1181 H   0  0
   -3.3644   -1.0987   -2.8419 H   0  0
   -2.4661    1.6213   -5.9730 H   0  0
   -0.7838    1.0955   -5.9676 H   0  0
   -1.4230   -0.8631   -7.4188 H   0  0
   -3.0591   -0.2515   -7.5211 H   0  0
   -1.8026    2.8259   -7.7101 H   0  0
   -1.1824    4.0749   -9.7155 H   0  0
   -0.3875    2.4963  -12.8110 H   0  0
   -0.7739   -0.7084  -12.0379 H   0  0
   -1.3818   -0.8663   -9.8749 H   0  0
  1  2  1  0
  1 39  1  0
  1 40  1  0
  1 41  1  0
  2  3  1  0
  3  4  2  0
  3  5  1  0
  5  6  2  0
  5 24  1  0
  6  7  1  0
  6 42  1  0
  7  8  1  0
  8  9  1  0
  8 21  1  0
  8 43  1  0
  9 10  1  0
 10 11  1  0
 10 19  1  0
 10 44  1  0
 11 12  1  0
 12 13  1  0
 12 15  1  0
 12 45  1  0
 13 14  1  0
 13 46  1  0
 13 47  1  0
 14 48  1  0
 15 16  1  0
 15 17  1  0
 15 49  1  0
 16 50  1  0
 17 18  1  0
 17 19  1  0
 17 51  1  0
 18 52  1  0
 19 20  1  0
 19 53  1  0
 20 54  1  0
 21 22  2  0
 21 24  1  0
 22 23  1  0
 22 55  1  0
 23 56  1  0
 23 57  1  0
 23 58  1  0
 24 25  1  0
 24 59  1  0
 25 26  1  0
 25 60  1  0
 25 61  1  0
 26 27  2  0
 26 28  1  0
 28 29  1  0
 29 30  1  0
 29 62  1  0
 29 63  1  0
 30 31  1  0
 30 64  1  0
 30 65  1  0
 31 32  2  0
 31 38  1  0
 32 33  1  0
 32 66  1  0
 33 34  2  0
 33 67  1  0
 34 35  1  0
 34 36  1  0
 35 68  1  0
 36 37  1  0
 36 38  2  0
 37 69  1  0
 38 70  1  0
M  END
> <Mol2_MolInfo_Name>
9926

> <Mol2_MolInfo_Type>
SMALL

> <Mol2_MolInfo_Charge>
USER_CHARGES

> <Mol2_Substructures>
     1 UNK         1 GROUP             0       ****    0 ROOT    

> <Name>
9926

$$$$
9926
  SciTegic06232017503D

 70 72  0  0  0  0            999 V2000
   -5.7702    2.6415    1.7401 C   0  0
   -4.4773    2.2336    1.3145 O   0  0
   -4.0597    0.9502    1.4797 C   0  0
   -4.7557    0.0725    1.9986 O   0  0
   -2.6873    0.6867    0.9894 C   0  0
   -1.9561    1.6395    0.3708 C   0  0
   -0.6954    1.5087   -0.1231 O   0  0
   -0.0715    0.2366   -0.0048 C   0  0  1  0  0  0
    1.3137    0.4089    0.0716 O   0  0
    1.9336    0.8950   -1.0857 C   0  0  1  0  0  0
    1.8164    2.2970   -1.1260 O   0  0
    2.3899    2.8904   -2.2967 C   0  0  1  0  0  0
    1.9564    4.3711   -2.3596 C   0  0
    2.3902    4.9836   -3.5581 O   0  0
    3.9240    2.6617   -2.2788 C   0  0  1  0  0  0
    4.5601    3.4110   -1.2534 O   0  0
    4.2142    1.1499   -2.1568 C   0  0  1  0  0  0
    5.6040    0.8768   -2.0882 O   0  0
    3.4234    0.5107   -0.9870 C   0  0  2  0  0  0
    3.5890   -0.8970   -0.9613 O   0  0
   -0.5768   -0.5796    1.2090 C   0  0
    0.1706   -1.1403    2.1906 C   0  0
    1.6795   -1.1561    2.3405 C   0  0
   -2.1098   -0.7085    1.2360 C   0  0  2  0  0  0
   -2.6392   -1.7144    0.1717 C   0  0
   -2.1805   -3.1715    0.3355 C   0  0
   -1.9726   -3.8840   -0.6474 O   0  0
   -2.0454   -3.5422    1.6241 O   0  0
   -1.6486   -4.8598    1.9794 C   0  0
   -1.4372   -4.9426    3.5011 C   0  0
   -2.6781   -4.5689    4.3017 C   0  0
   -2.8653   -3.2523    4.7346 C   0  0
   -4.0097   -2.9040    5.4510 C   0  0
   -4.9756   -3.8686    5.7426 C   0  0
   -6.0944   -3.5037    6.4477 O   0  0
   -4.7933   -5.1899    5.3124 C   0  0
   -5.7291   -6.1568    5.5835 O   0  0
   -3.6459   -5.5348    4.5943 C   0  0
   -5.9133    3.7007    1.5265 H   0  0
   -5.8942    2.4918    2.8137 H   0  0
   -6.5485    2.0816    1.2194 H   0  0
   -2.3029    2.6478    0.1942 H   0  0
   -0.3114   -0.2892   -0.9315 H   0  0
    1.4651    0.4990   -1.9915 H   0  0
    1.9679    2.3974   -3.1764 H   0  0
    0.8686    4.4394   -2.3219 H   0  0
    2.3381    4.9336   -1.5069 H   0  0
    3.3446    5.0815   -3.5266 H   0  0
    4.3515    3.0269   -3.2139 H   0  0
    4.5066    4.3436   -1.4748 H   0  0
    3.8845    0.6757   -3.0834 H   0  0
    5.9526    1.2828   -1.2907 H   0  0
    3.7982    0.8903   -0.0342 H   0  0
    3.6344   -1.2158   -1.8657 H   0  0
   -0.3452   -1.6679    2.9801 H   0  0
    1.9656   -1.8336    3.1452 H   0  0
    2.0531   -0.1625    2.5894 H   0  0
    2.1641   -1.5074    1.4296 H   0  0
   -2.4167   -1.0442    2.2302 H   0  0
   -3.7290   -1.7245    0.1955 H   0  0
   -2.3675   -1.3778   -0.8290 H   0  0
   -2.4156   -5.5699    1.6662 H   0  0
   -0.7242   -5.1272    1.4644 H   0  0
   -1.1240   -5.9509    3.7752 H   0  0
   -0.6092   -4.2957    3.7961 H   0  0
   -2.1290   -2.4942    4.5095 H   0  0
   -4.1453   -1.8826    5.7763 H   0  0
   -6.7032   -4.2352    6.5746 H   0  0
   -5.4899   -7.0178    5.2327 H   0  0
   -3.5077   -6.5526    4.2582 H   0  0
  1  2  1  0
  1 39  1  0
  1 40  1  0
  1 41  1  0
  2  3  1  0
  3  4  2  0
  3  5  1  0
  5  6  2  0
  5 24  1  0
  6  7  1  0
  6 42  1  0
  7  8  1  0
  8  9  1  0
  8 21  1  0
  8 43  1  0
  9 10  1  0
 10 11  1  0
 10 19  1  0
 10 44  1  0
 11 12  1  0
 12 13  1  0
 12 15  1  0
 12 45  1  0
 13 14  1  0
 13 46  1  0
 13 47  1  0
 14 48  1  0
 15 16  1  0
 15 17  1  0
 15 49  1  0
 16 50  1  0
 17 18  1  0
 17 19  1  0
 17 51  1  0
 18 52  1  0
 19 20  1  0
 19 53  1  0
 20 54  1  0
 21 22  2  0
 21 24  1  0
 22 23  1  0
 22 55  1  0
 23 56  1  0
 23 57  1  0
 23 58  1  0
 24 25  1  0
 24 59  1  0
 25 26  1  0
 25 60  1  0
 25 61  1  0
 26 27  2  0
 26 28  1  0
 28 29  1  0
 29 30  1  0
 29 62  1  0
 29 63  1  0
 30 31  1  0
 30 64  1  0
 30 65  1  0
 31 32  2  0
 31 38  1  0
 32 33  1  0
 32 66  1  0
 33 34  2  0
 33 67  1  0
 34 35  1  0
 34 36  1  0
 35 68  1  0
 36 37  1  0
 36 38  2  0
 37 69  1  0
 38 70  1  0
M  END
> <Mol2_MolInfo_Name>
9926

> <Mol2_MolInfo_Type>
SMALL

> <Mol2_MolInfo_Charge>
USER_CHARGES

> <Mol2_Substructures>
     1 UNK         1 GROUP             0       ****    0 ROOT    

> <Name>
9926

$$$$
9926
  SciTegic06232017503D

 70 72  0  0  0  0            999 V2000
   -5.1359    3.2586   -1.4310 C   0  0
   -3.9355    2.5513   -1.1548 O   0  0
   -3.9680    1.2480   -0.7726 C   0  0
   -5.0053    0.5905   -0.6558 O   0  0
   -2.6333    0.6541   -0.5561 C   0  0
   -1.6271    1.4215   -0.1091 C   0  0
   -0.3747    1.0391    0.2083 O   0  0
   -0.0682   -0.3424    0.1983 C   0  0  2  0  0  0
    1.2772   -0.4912   -0.1745 O   0  0
    2.2205    0.0864    0.6981 C   0  0  2  0  0  0
    2.3163    1.4830    0.5170 O   0  0
    2.7684    1.8876   -0.7848 C   0  0  1  0  0  0
    2.5709    3.4075   -0.9813 C   0  0
    3.3195    4.1888   -0.0713 O   0  0
    4.1873    1.3422   -1.0852 C   0  0  1  0  0  0
    5.1881    1.9535   -0.2867 O   0  0
    4.1728   -0.1927   -0.9192 C   0  0  1  0  0  0
    5.4457   -0.7743   -1.1511 O   0  0
    3.5941   -0.5775    0.4644 C   0  0  2  0  0  0
    3.5588   -1.9754    0.6838 O   0  0
   -0.9586   -1.2556   -0.6886 C   0  0
   -0.5444   -2.4674   -1.1406 C   0  0
    0.7797   -3.1640   -0.8945 C   0  0
   -2.4295   -0.8186   -0.9308 C   0  0  2  0  0  0
   -2.9425   -1.1423   -2.3828 C   0  0
   -2.3128   -0.3121   -3.5119 C   0  0
   -2.9798    0.5020   -4.1525 O   0  0
   -0.9982   -0.5694   -3.6790 O   0  0
   -0.1923    0.1904   -4.5729 C   0  0
    0.1399    1.5771   -3.9856 C   0  0
    1.3051    2.2539   -4.6893 C   0  0
    2.6066    1.7817   -4.4970 C   0  0
    3.6821    2.4056   -5.1278 C   0  0
    3.4654    3.5047   -5.9607 C   0  0
    4.5396    4.1004   -6.5727 O   0  0
    2.1621    3.9804   -6.1612 C   0  0
    1.9186    5.0570   -6.9766 O   0  0
    1.0882    3.3540   -5.5245 C   0  0
   -4.9033    4.2839   -1.7179 H   0  0
   -5.7832    3.2895   -0.5534 H   0  0
   -5.6846    2.7925   -2.2506 H   0  0
   -1.7148    2.4877    0.0479 H   0  0
   -0.1965   -0.6309    1.2438 H   0  0
    1.9051   -0.0264    1.7376 H   0  0
    2.0981    1.4296   -1.5113 H   0  0
    2.8470    3.6964   -1.9960 H   0  0
    1.5167    3.6614   -0.8645 H   0  0
    3.1099    5.1143   -0.2177 H   0  0
    4.4497    1.5884   -2.1148 H   0  0
    5.1780    2.8990   -0.4547 H   0  0
    3.5244   -0.6233   -1.6848 H   0  0
    5.8868   -0.2783   -1.8446 H   0  0
    4.2576   -0.1898    1.2395 H   0  0
    4.3601   -2.3564    0.3159 H   0  0
   -1.2215   -3.0731   -1.7212 H   0  0
    0.6482   -4.2441   -0.9615 H   0  0
    1.1654   -2.9482    0.1006 H   0  0
    1.5152   -2.8648   -1.6415 H   0  0
   -3.0326   -1.4026   -0.2333 H   0  0
   -2.8274   -2.1968   -2.6254 H   0  0
   -4.0195   -0.9803   -2.4248 H   0  0
    0.7297   -0.3742   -4.7152 H   0  0
   -0.6589    0.2778   -5.5556 H   0  0
   -0.7422    2.2190   -4.0074 H   0  0
    0.3928    1.4787   -2.9302 H   0  0
    2.7863    0.9295   -3.8577 H   0  0
    4.6827    2.0306   -4.9685 H   0  0
    5.3745    3.6771   -6.3613 H   0  0
    0.9864    5.2770   -7.0392 H   0  0
    0.0843    3.7229   -5.6798 H   0  0
  1  2  1  0
  1 39  1  0
  1 40  1  0
  1 41  1  0
  2  3  1  0
  3  4  2  0
  3  5  1  0
  5  6  2  0
  5 24  1  0
  6  7  1  0
  6 42  1  0
  7  8  1  0
  8  9  1  0
  8 21  1  0
  8 43  1  0
  9 10  1  0
 10 11  1  0
 10 19  1  0
 10 44  1  0
 11 12  1  0
 12 13  1  0
 12 15  1  0
 12 45  1  0
 13 14  1  0
 13 46  1  0
 13 47  1  0
 14 48  1  0
 15 16  1  0
 15 17  1  0
 15 49  1  0
 16 50  1  0
 17 18  1  0
 17 19  1  0
 17 51  1  0
 18 52  1  0
 19 20  1  0
 19 53  1  0
 20 54  1  0
 21 22  2  0
 21 24  1  0
 22 23  1  0
 22 55  1  0
 23 56  1  0
 23 57  1  0
 23 58  1  0
 24 25  1  0
 24 59  1  0
 25 26  1  0
 25 60  1  0
 25 61  1  0
 26 27  2  0
 26 28  1  0
 28 29  1  0
 29 30  1  0
 29 62  1  0
 29 63  1  0
 30 31  1  0
 30 64  1  0
 30 65  1  0
 31 32  2  0
 31 38  1  0
 32 33  1  0
 32 66  1  0
 33 34  2  0
 33 67  1  0
 34 35  1  0
 34 36  1  0
 35 68  1  0
 36 37  1  0
 36 38  2  0
 37 69  1  0
 38 70  1  0
M  END
> <Mol2_MolInfo_Name>
9926

> <Mol2_MolInfo_Type>
SMALL

> <Mol2_MolInfo_Charge>
USER_CHARGES

> <Mol2_Substructures>
     1 UNK         1 GROUP             0       ****    0 ROOT    

> <Name>
9926

$$$$
9926
  SciTegic06232017503D

 70 72  0  0  0  0            999 V2000
   -4.7051   -2.1527    3.4702 C   0  0
   -3.4923   -1.7651    2.8405 O   0  0
   -3.4551   -0.7203    1.9781 C   0  0
   -4.4441   -0.0367    1.6947 O   0  0
   -2.1138   -0.4691    1.4061 C   0  0
   -1.8707    0.7150    0.8034 C   0  0
   -0.6996    1.1208    0.2412 O   0  0
    0.3800    0.1974    0.2528 C   0  0  1  0  0  0
    1.5897    0.8949    0.2417 O   0  0
    1.9029    1.5399   -0.9654 C   0  0  2  0  0  0
    2.3507    0.6268   -1.9434 O   0  0
    3.5714   -0.0574   -1.6205 C   0  0  1  0  0  0
    3.8319   -1.1912   -2.6391 C   0  0
    3.9807   -0.7277   -3.9668 O   0  0
    4.7394    0.9405   -1.4076 C   0  0  1  0  0  0
    5.1383    1.5760   -2.6125 O   0  0
    4.3322    1.9649   -0.3269 C   0  0  1  0  0  0
    5.3486    2.9250   -0.0890 O   0  0
    2.9725    2.6136   -0.6810 C   0  0  2  0  0  0
    2.5276    3.5348    0.2998 O   0  0
    0.3255   -0.7813    1.4512 C   0  0
    1.2811   -0.9927    2.3881 C   0  0
    2.6368   -0.3270    2.5264 C   0  0
   -1.0101   -1.5370    1.5181 C   0  0  2  0  0  0
   -1.0697   -2.5992    0.3817 C   0  0
   -2.2675   -3.5517    0.4350 C   0  0
   -3.1100   -3.5673   -0.4638 O   0  0
   -2.2749   -4.3133    1.5475 O   0  0
   -3.3463   -5.2115    1.7996 C   0  0
   -3.1468   -5.8668    3.1729 C   0  0
   -4.3060   -6.7745    3.5504 C   0  0
   -4.2726   -8.1338    3.2256 C   0  0
   -5.3392   -8.9642    3.5696 C   0  0
   -6.4479   -8.4429    4.2390 C   0  0
   -7.4861   -9.2775    4.5675 O   0  0
   -6.4877   -7.0805    4.5645 C   0  0
   -7.5664   -6.5411    5.2195 O   0  0
   -5.4173   -6.2527    4.2199 C   0  0
   -4.5199   -2.9900    4.1428 H   0  0
   -5.4449   -2.4668    2.7325 H   0  0
   -5.1236   -1.3328    4.0558 H   0  0
   -2.6045    1.5045    0.7158 H   0  0
    0.2950   -0.3511   -0.6882 H   0  0
    1.0090    1.9862   -1.4073 H   0  0
    3.4125   -0.5722   -0.6711 H   0  0
    4.7282   -1.7481   -2.3637 H   0  0
    3.0074   -1.9048   -2.6191 H   0  0
    4.0958   -1.4853   -4.5453 H   0  0
    5.6164    0.3893   -1.0645 H   0  0
    5.4541    0.9043   -3.2218 H   0  0
    4.2324    1.4288    0.6182 H   0  0
    4.9517    3.6880    0.3380 H   0  0
    3.0818    3.1941   -1.5990 H   0  0
    2.5870    3.1142    1.1608 H   0  0
    1.0781   -1.7188    3.1624 H   0  0
    3.0862   -0.5984    3.4819 H   0  0
    2.5535    0.7595    2.5029 H   0  0
    3.3104   -0.6584    1.7364 H   0  0
   -1.0643   -2.0433    2.4845 H   0  0
   -1.0757   -2.1066   -0.5909 H   0  0
   -0.1672   -3.2110    0.4030 H   0  0
   -4.2931   -4.6682    1.7829 H   0  0
   -3.3902   -5.9725    1.0186 H   0  0
   -2.2162   -6.4366    3.1885 H   0  0
   -3.0321   -5.1008    3.9420 H   0  0
   -3.4218   -8.5491    2.7050 H   0  0
   -5.3026  -10.0135    3.3142 H   0  0
   -8.2014   -8.8158    5.0112 H   0  0
   -7.4753   -5.5986    5.3764 H   0  0
   -5.4492   -5.2019    4.4708 H   0  0
  1  2  1  0
  1 39  1  0
  1 40  1  0
  1 41  1  0
  2  3  1  0
  3  4  2  0
  3  5  1  0
  5  6  2  0
  5 24  1  0
  6  7  1  0
  6 42  1  0
  7  8  1  0
  8  9  1  0
  8 21  1  0
  8 43  1  0
  9 10  1  0
 10 11  1  0
 10 19  1  0
 10 44  1  0
 11 12  1  0
 12 13  1  0
 12 15  1  0
 12 45  1  0
 13 14  1  0
 13 46  1  0
 13 47  1  0
 14 48  1  0
 15 16  1  0
 15 17  1  0
 15 49  1  0
 16 50  1  0
 17 18  1  0
 17 19  1  0
 17 51  1  0
 18 52  1  0
 19 20  1  0
 19 53  1  0
 20 54  1  0
 21 22  2  0
 21 24  1  0
 22 23  1  0
 22 55  1  0
 23 56  1  0
 23 57  1  0
 23 58  1  0
 24 25  1  0
 24 59  1  0
 25 26  1  0
 25 60  1  0
 25 61  1  0
 26 27  2  0
 26 28  1  0
 28 29  1  0
 29 30  1  0
 29 62  1  0
 29 63  1  0
 30 31  1  0
 30 64  1  0
 30 65  1  0
 31 32  2  0
 31 38  1  0
 32 33  1  0
 32 66  1  0
 33 34  2  0
 33 67  1  0
 34 35  1  0
 34 36  1  0
 35 68  1  0
 36 37  1  0
 36 38  2  0
 37 69  1  0
 38 70  1  0
M  END
> <Mol2_MolInfo_Name>
9926

> <Mol2_MolInfo_Type>
SMALL

> <Mol2_MolInfo_Charge>
USER_CHARGES

> <Mol2_Substructures>
     1 UNK         1 GROUP             0       ****    0 ROOT    

> <Name>
9926

$$$$
9926
  SciTegic06232017503D

 70 72  0  0  0  0            999 V2000
   -5.5219    1.9693    1.3497 C   0  0
   -4.2408    1.3965    1.1310 O   0  0
   -4.1130    0.1019    0.7368 C   0  0
   -5.0707   -0.6486    0.5313 O   0  0
   -2.7149   -0.3289    0.5246 C   0  0
   -1.7069    0.2945    1.1570 C   0  0
   -0.3856    0.0282    1.0912 O   0  0
    0.0492   -1.0652    0.3104 C   0  0  2  0  0  0
    1.2023   -0.7189   -0.4163 O   0  0
    1.0331   -0.0254   -1.6247 C   0  0  1  0  0  0
    0.5037    1.2680   -1.4422 O   0  0
    1.3234    2.1788   -0.6950 C   0  0  2  0  0  0
    0.5369    3.4985   -0.5355 C   0  0
   -0.6370    3.3041    0.2263 O   0  0
    2.6832    2.3782   -1.4089 C   0  0  1  0  0  0
    3.5362    3.2777   -0.7200 O   0  0
    3.3680    1.0158   -1.6477 C   0  0  1  0  0  0
    3.9037    0.4550   -0.4593 O   0  0
    2.3979    0.0287   -2.3378 C   0  0  2  0  0  0
    2.2271    0.3488   -3.7061 O   0  0
   -0.9898   -1.8776   -0.5072 C   0  0
   -0.6451   -3.0051   -1.1720 C   0  0
    0.7283   -3.6472   -1.2611 C   0  0
   -2.4697   -1.4449   -0.4898 C   0  0  2  0  0  0
   -3.0078   -1.1223   -1.9230 C   0  0
   -2.4377    0.1267   -2.6140 C   0  0
   -2.5175    1.2454   -2.1025 O   0  0
   -1.8622   -0.1602   -3.7995 O   0  0
   -1.2893    0.8717   -4.5921 C   0  0
   -0.7204    0.2697   -5.8850 C   0  0
   -0.1642    1.3310   -6.8218 C   0  0
   -1.0334    2.1080   -7.5938 C   0  0
   -0.5294    3.0863   -8.4507 C   0  0
    0.8474    3.2966   -8.5434 C   0  0
    1.3211    4.2645   -9.3925 O   0  0
    1.7238    2.5199   -7.7740 C   0  0
    3.0816    2.7052   -7.8464 O   0  0
    1.2152    1.5401   -6.9185 C   0  0
   -5.4138    3.0071    1.6653 H   0  0
   -6.0634    1.4315    2.1292 H   0  0
   -6.1188    1.9523    0.4367 H   0  0
   -1.8543    1.1289    1.8282 H   0  0
    0.4118   -1.7029    1.1176 H   0  0
    0.3012   -0.5342   -2.2487 H   0  0
    1.5041    1.7660    0.3001 H   0  0
    1.1390    4.2501   -0.0244 H   0  0
    0.2679    3.9092   -1.5095 H   0  0
   -0.3854    3.0479    1.1167 H   0  0
    2.4951    2.8422   -2.3787 H   0  0
    3.1719    4.1630   -0.7933 H   0  0
    4.2381    1.1514   -2.2931 H   0  0
    4.2800    1.1654    0.0660 H   0  0
    2.8165   -0.9796   -2.3362 H   0  0
    2.0529    1.2902   -3.7779 H   0  0
   -1.4148   -3.5461   -1.7035 H   0  0
    0.6579   -4.7041   -1.0038 H   0  0
    1.4578   -3.1947   -0.5912 H   0  0
    1.1093   -3.5674   -2.2794 H   0  0
   -3.0268   -2.3145   -0.1341 H   0  0
   -2.8471   -1.9848   -2.5704 H   0  0
   -4.0900   -0.9990   -1.8891 H   0  0
   -2.0523    1.6147   -4.8306 H   0  0
   -0.5003    1.3796   -4.0350 H   0  0
    0.0547   -0.4611   -5.6482 H   0  0
   -1.4965   -0.2867   -6.4131 H   0  0
   -2.1011    1.9560   -7.5295 H   0  0
   -1.2111    3.6801   -9.0423 H   0  0
    2.2801    4.3124   -9.3980 H   0  0
    3.5710    2.1031   -7.2812 H   0  0
    1.8940    0.9411   -6.3294 H   0  0
  1  2  1  0
  1 39  1  0
  1 40  1  0
  1 41  1  0
  2  3  1  0
  3  4  2  0
  3  5  1  0
  5  6  2  0
  5 24  1  0
  6  7  1  0
  6 42  1  0
  7  8  1  0
  8  9  1  0
  8 21  1  0
  8 43  1  0
  9 10  1  0
 10 11  1  0
 10 19  1  0
 10 44  1  0
 11 12  1  0
 12 13  1  0
 12 15  1  0
 12 45  1  0
 13 14  1  0
 13 46  1  0
 13 47  1  0
 14 48  1  0
 15 16  1  0
 15 17  1  0
 15 49  1  0
 16 50  1  0
 17 18  1  0
 17 19  1  0
 17 51  1  0
 18 52  1  0
 19 20  1  0
 19 53  1  0
 20 54  1  0
 21 22  2  0
 21 24  1  0
 22 23  1  0
 22 55  1  0
 23 56  1  0
 23 57  1  0
 23 58  1  0
 24 25  1  0
 24 59  1  0
 25 26  1  0
 25 60  1  0
 25 61  1  0
 26 27  2  0
 26 28  1  0
 28 29  1  0
 29 30  1  0
 29 62  1  0
 29 63  1  0
 30 31  1  0
 30 64  1  0
 30 65  1  0
 31 32  2  0
 31 38  1  0
 32 33  1  0
 32 66  1  0
 33 34  2  0
 33 67  1  0
 34 35  1  0
 34 36  1  0
 35 68  1  0
 36 37  1  0
 36 38  2  0
 37 69  1  0
 38 70  1  0
M  END
> <Mol2_MolInfo_Name>
9926

> <Mol2_MolInfo_Type>
SMALL

> <Mol2_MolInfo_Charge>
USER_CHARGES

> <Mol2_Substructures>
     1 UNK         1 GROUP             0       ****    0 ROOT    

> <Name>
9926

$$$$
9926
  SciTegic06232017503D

 70 72  0  0  0  0            999 V2000
   -5.5042    3.1279    1.9128 C   0  0
   -4.2753    2.5825    1.4538 O   0  0
   -3.7584    1.4583    2.0156 C   0  0
   -4.3076    0.8391    2.9307 O   0  0
   -2.4892    1.0087    1.4063 C   0  0
   -1.7120    1.8625    0.7086 C   0  0
   -0.5373    1.5752    0.0907 O   0  0
   -0.0483    0.2426    0.1721 C   0  0  1  0  0  0
    1.3499    0.2843    0.1782 O   0  0
    1.9570    0.6528   -1.0332 C   0  0  1  0  0  0
    1.8122    2.0280   -1.3095 O   0  0
    2.4101    2.9122   -0.3506 C   0  0  2  0  0  0
    1.9914    4.3464   -0.7426 C   0  0
    2.1716    5.2588    0.3222 O   0  0
    3.9421    2.6784   -0.3134 C   0  0  1  0  0  0
    4.6237    3.5420    0.5803 O   0  0
    4.2484    1.1935   -0.0215 C   0  0  1  0  0  0
    4.0339    0.8520    1.3388 O   0  0
    3.4478    0.2626   -0.9653 C   0  0  2  0  0  0
    4.0135    0.2398   -2.2635 O   0  0
   -0.5680   -0.5372    1.4072 C   0  0
    0.1642   -1.2417    2.3043 C   0  0
    1.6576   -1.5079    2.3249 C   0  0
   -2.0944   -0.4650    1.5596 C   0  0  2  0  0  0
   -2.7643   -1.3800    0.4967 C   0  0
   -4.2541   -1.6500    0.7277 C   0  0
   -4.6509   -2.2220    1.7447 O   0  0
   -5.0280   -1.1706   -0.2727 O   0  0
   -6.4474   -1.2937   -0.2388 C   0  0
   -6.9163   -2.7032   -0.6469 C   0  0
   -8.4316   -2.8239   -0.6612 C   0  0
   -9.1234   -3.1229    0.5163 C   0  0
  -10.5140   -3.2310    0.5061 C   0  0
  -11.2244   -3.0409   -0.6808 C   0  0
  -12.5922   -3.1531   -0.6682 O   0  0
  -10.5359   -2.7398   -1.8636 C   0  0
  -11.2099   -2.5476   -3.0431 O   0  0
   -9.1437   -2.6323   -1.8493 C   0  0
   -5.7417    4.0309    1.3504 H   0  0
   -5.4460    3.3918    2.9697 H   0  0
   -6.3211    2.4177    1.7769 H   0  0
   -1.9464    2.9075    0.5613 H   0  0
   -0.3950   -0.2413   -0.7433 H   0  0
    1.4559    0.1556   -1.8668 H   0  0
    1.9790    2.6946    0.6296 H   0  0
    2.5358    4.6905   -1.6227 H   0  0
    0.9322    4.3670   -1.0025 H   0  0
    1.8748    6.1256    0.0357 H   0  0
    4.3429    2.9202   -1.2993 H   0  0
    4.3108    3.3641    1.4706 H   0  0
    5.3158    1.0206   -0.1706 H   0  0
    4.8776    0.6139    1.7305 H   0  0
    3.5090   -0.7699   -0.6166 H   0  0
    4.9699    0.2426   -2.1812 H   0  0
   -0.3615   -1.7159    3.1209 H   0  0
    1.8630   -2.3971    2.9208 H   0  0
    2.1839   -0.6708    2.7827 H   0  0
    2.0615   -1.6904    1.3302 H   0  0
   -2.3601   -0.8191    2.5592 H   0  0
   -2.6219   -0.9621   -0.5008 H   0  0
   -2.2683   -2.3511    0.4873 H   0  0
   -6.8302   -1.0271    0.7482 H   0  0
   -6.8583   -0.5624   -0.9354 H   0  0
   -6.5212   -2.9593   -1.6313 H   0  0
   -6.5100   -3.4542    0.0323 H   0  0
   -8.5847   -3.2705    1.4412 H   0  0
  -11.0363   -3.4627    1.4230 H   0  0
  -12.9422   -3.3700    0.1987 H   0  0
  -12.1597   -2.6477   -2.9440 H   0  0
   -8.6155   -2.3983   -2.7626 H   0  0
  1  2  1  0
  1 39  1  0
  1 40  1  0
  1 41  1  0
  2  3  1  0
  3  4  2  0
  3  5  1  0
  5  6  2  0
  5 24  1  0
  6  7  1  0
  6 42  1  0
  7  8  1  0
  8  9  1  0
  8 21  1  0
  8 43  1  0
  9 10  1  0
 10 11  1  0
 10 19  1  0
 10 44  1  0
 11 12  1  0
 12 13  1  0
 12 15  1  0
 12 45  1  0
 13 14  1  0
 13 46  1  0
 13 47  1  0
 14 48  1  0
 15 16  1  0
 15 17  1  0
 15 49  1  0
 16 50  1  0
 17 18  1  0
 17 19  1  0
 17 51  1  0
 18 52  1  0
 19 20  1  0
 19 53  1  0
 20 54  1  0
 21 22  2  0
 21 24  1  0
 22 23  1  0
 22 55  1  0
 23 56  1  0
 23 57  1  0
 23 58  1  0
 24 25  1  0
 24 59  1  0
 25 26  1  0
 25 60  1  0
 25 61  1  0
 26 27  2  0
 26 28  1  0
 28 29  1  0
 29 30  1  0
 29 62  1  0
 29 63  1  0
 30 31  1  0
 30 64  1  0
 30 65  1  0
 31 32  2  0
 31 38  1  0
 32 33  1  0
 32 66  1  0
 33 34  2  0
 33 67  1  0
 34 35  1  0
 34 36  1  0
 35 68  1  0
 36 37  1  0
 36 38  2  0
 37 69  1  0
 38 70  1  0
M  END
> <Mol2_MolInfo_Name>
9926

> <Mol2_MolInfo_Type>
SMALL

> <Mol2_MolInfo_Charge>
USER_CHARGES

> <Mol2_Substructures>
     1 UNK         1 GROUP             0       ****    0 ROOT    

> <Name>
9926

$$$$
9926
  SciTegic06232017503D

 70 72  0  0  0  0            999 V2000
   -6.1326    1.7174   -0.6152 C   0  0
   -4.7531    1.5350   -0.3298 O   0  0
   -4.1803    0.3053   -0.4117 C   0  0
   -4.7922   -0.7133   -0.7443 O   0  0
   -2.7330    0.2919   -0.1091 C   0  0
   -2.1908    1.2458    0.6663 C   0  0
   -0.9068    1.3726    1.0622 O   0  0
    0.0200    0.3707    0.6959 C   0  0  2  0  0  0
    1.2498    0.9649    0.3695 O   0  0
    1.3444    1.5893   -0.8806 C   0  0  2  0  0  0
    1.8908    0.7050   -1.8258 O   0  0
    1.9415    1.2362   -3.1558 C   0  0  2  0  0  0
    2.3984    0.1074   -4.1039 C   0  0
    1.4743   -0.9625   -4.1014 O   0  0
    2.8843    2.4680   -3.1810 C   0  0  1  0  0  0
    2.9593    3.0656   -4.4651 O   0  0
    2.4738    3.4904   -2.0930 C   0  0  1  0  0  0
    1.3025    4.2125   -2.4422 O   0  0
    2.2914    2.7935   -0.7227 C   0  0  2  0  0  0
    3.5439    2.4301   -0.1645 O   0  0
   -0.4153   -0.7378   -0.3005 C   0  0
    0.4169   -1.7472   -0.6529 C   0  0
    1.8519   -1.9773   -0.2113 C   0  0
   -1.8832   -0.7917   -0.7738 C   0  0  2  0  0  0
   -2.0088   -0.8428   -2.3358 C   0  0
   -1.7429    0.4423   -3.1395 C   0  0
   -1.7596    1.5648   -2.6313 O   0  0
   -1.4998    0.1741   -4.4393 O   0  0
   -1.2872    1.2258   -5.3735 C   0  0
   -0.7072    0.6472   -6.6717 C   0  0
   -0.3687    1.7294   -7.6842 C   0  0
    0.8123    2.4657   -7.5525 C   0  0
    1.1260    3.4626   -8.4759 C   0  0
    0.2631    3.7298   -9.5404 C   0  0
    0.5922    4.7141  -10.4380 O   0  0
   -0.9215    2.9940   -9.6787 C   0  0
   -1.7862    3.2359  -10.7169 O   0  0
   -1.2334    1.9983   -8.7499 C   0  0
   -6.4017    2.7655   -0.4853 H   0  0
   -6.7534    1.1214    0.0551 H   0  0
   -6.3597    1.4329   -1.6436 H   0  0
   -2.7589    2.0659    1.0828 H   0  0
    0.1741   -0.0907    1.6723 H   0  0
    0.3586    1.8937   -1.2380 H   0  0
    0.9429    1.5526   -3.4557 H   0  0
    2.4848    0.4730   -5.1273 H   0  0
    3.3791   -0.2689   -3.8108 H   0  0
    0.6420   -0.6504   -4.4644 H   0  0
    3.8971    2.1270   -2.9593 H   0  0
    3.4702    2.4913   -5.0405 H   0  0
    3.2469    4.2547   -1.9951 H   0  0
    1.3362    4.4036   -3.3829 H   0  0
    1.8385    3.4864   -0.0111 H   0  0
    3.3906    2.0775    0.7153 H   0  0
    0.0445   -2.5176   -1.3123 H   0  0
    1.9629   -2.9970    0.1571 H   0  0
    2.1704   -1.3065    0.5845 H   0  0
    2.5261   -1.8459   -1.0577 H   0  0
   -2.2677   -1.7447   -0.4039 H   0  0
   -1.3635   -1.6270   -2.7311 H   0  0
   -3.0201   -1.1569   -2.5931 H   0  0
   -2.2316    1.7347   -5.5727 H   0  0
   -0.6006    1.9694   -4.9664 H   0  0
    0.1997    0.0793   -6.4588 H   0  0
   -1.4036   -0.0693   -7.1104 H   0  0
    1.4878    2.2680   -6.7333 H   0  0
    2.0407    4.0266   -8.3627 H   0  0
   -0.0684    4.8207  -11.1267 H   0  0
   -2.5554    2.6616  -10.7051 H   0  0
   -2.1487    1.4333   -8.8561 H   0  0
  1  2  1  0
  1 39  1  0
  1 40  1  0
  1 41  1  0
  2  3  1  0
  3  4  2  0
  3  5  1  0
  5  6  2  0
  5 24  1  0
  6  7  1  0
  6 42  1  0
  7  8  1  0
  8  9  1  0
  8 21  1  0
  8 43  1  0
  9 10  1  0
 10 11  1  0
 10 19  1  0
 10 44  1  0
 11 12  1  0
 12 13  1  0
 12 15  1  0
 12 45  1  0
 13 14  1  0
 13 46  1  0
 13 47  1  0
 14 48  1  0
 15 16  1  0
 15 17  1  0
 15 49  1  0
 16 50  1  0
 17 18  1  0
 17 19  1  0
 17 51  1  0
 18 52  1  0
 19 20  1  0
 19 53  1  0
 20 54  1  0
 21 22  2  0
 21 24  1  0
 22 23  1  0
 22 55  1  0
 23 56  1  0
 23 57  1  0
 23 58  1  0
 24 25  1  0
 24 59  1  0
 25 26  1  0
 25 60  1  0
 25 61  1  0
 26 27  2  0
 26 28  1  0
 28 29  1  0
 29 30  1  0
 29 62  1  0
 29 63  1  0
 30 31  1  0
 30 64  1  0
 30 65  1  0
 31 32  2  0
 31 38  1  0
 32 33  1  0
 32 66  1  0
 33 34  2  0
 33 67  1  0
 34 35  1  0
 34 36  1  0
 35 68  1  0
 36 37  1  0
 36 38  2  0
 37 69  1  0
 38 70  1  0
M  END
> <Mol2_MolInfo_Name>
9926

> <Mol2_MolInfo_Type>
SMALL

> <Mol2_MolInfo_Charge>
USER_CHARGES

> <Mol2_Substructures>
     1 UNK         1 GROUP             0       ****    0 ROOT    

> <Name>
9926

$$$$
9926
  SciTegic06232017503D

 70 72  0  0  0  0            999 V2000
   -5.8070    0.4422    3.1075 C   0  0
   -4.5501    0.2140    2.4858 O   0  0
   -3.8849    1.2191    1.8631 C   0  0
   -4.3121    2.3764    1.7957 O   0  0
   -2.5971    0.7997    1.2658 C   0  0
   -1.8401    1.7083    0.6168 C   0  0
   -0.6508    1.4887   -0.0036 O   0  0
   -0.1521    0.1580   -0.0130 C   0  0  1  0  0  0
    1.2427    0.1974   -0.0771 O   0  0
    1.7781    0.6553   -1.2851 C   0  0  2  0  0  0
    1.6768   -0.3317   -2.2823 O   0  0
    2.0985    0.1276   -3.5756 C   0  0  2  0  0  0
    1.7635   -0.9680   -4.6085 C   0  0
    0.3656   -1.1521   -4.7076 O   0  0
    3.6136    0.4618   -3.5192 C   0  0  1  0  0  0
    4.1190    0.9280   -4.7589 O   0  0
    3.9192    1.4442   -2.3614 C   0  0  1  0  0  0
    3.5232    2.7748   -2.6619 O   0  0
    3.2674    0.9655   -1.0413 C   0  0  2  0  0  0
    3.9688   -0.1377   -0.4909 O   0  0
   -0.6085   -0.6752    1.2081 C   0  0
    0.1770   -1.3801    2.0584 C   0  0
    1.6800   -1.5798    2.0159 C   0  0
   -2.1355   -0.6548    1.4060 C   0  0  2  0  0  0
   -2.8733   -1.5673    0.3876 C   0  0
   -2.5774   -3.0585    0.5726 C   0  0
   -3.3192   -3.7798    1.2417 O   0  0
   -1.4446   -3.4383   -0.0515 O   0  0
   -0.9729   -4.7757    0.0493 C   0  0
    0.3689   -4.9261   -0.6939 C   0  0
    0.3442   -4.7648   -2.2157 C   0  0
    1.5577   -4.8220   -2.9086 C   0  0
    1.5902   -4.7022   -4.2974 C   0  0
    0.4074   -4.5151   -5.0130 C   0  0
    0.4628   -4.3918   -6.3788 O   0  0
   -0.8139   -4.4510   -4.3307 C   0  0
   -1.9916   -4.2622   -5.0090 O   0  0
   -0.8422   -4.5800   -2.9406 C   0  0
   -6.1723   -0.4831    3.5528 H   0  0
   -6.5463    0.7850    2.3820 H   0  0
   -5.7233    1.1899    3.8976 H   0  0
   -2.1073    2.7516    0.5213 H   0  0
   -0.5343   -0.2860   -0.9356 H   0  0
    1.2263    1.5335   -1.6318 H   0  0
    1.5424    1.0288   -3.8468 H   0  0
    2.1345   -0.6982   -5.5975 H   0  0
    2.2359   -1.9113   -4.3348 H   0  0
   -0.0206   -0.3701   -5.1089 H   0  0
    4.1541   -0.4661   -3.3239 H   0  0
    3.8161    1.8296   -4.8910 H   0  0
    5.0004    1.5092   -2.2259 H   0  0
    2.5703    2.7943   -2.7764 H   0  0
    3.3234    1.7526   -0.2871 H   0  0
    4.1212   -0.7811   -1.1866 H   0  0
   -0.3031   -1.9011    2.8745 H   0  0
    1.9666   -2.3824    2.6954 H   0  0
    2.1973   -0.6730    2.3296 H   0  0
    2.0169   -1.8628    1.0185 H   0  0
   -2.3559   -1.0031    2.4183 H   0  0
   -3.9508   -1.4332    0.4877 H   0  0
   -2.6291   -1.2791   -0.6352 H   0  0
   -0.8277   -5.0219    1.1027 H   0  0
   -1.7119   -5.4750   -0.3454 H   0  0
    1.0849   -4.2138   -0.2799 H   0  0
    0.7663   -5.9194   -0.4820 H   0  0
    2.4829   -4.9645   -2.3690 H   0  0
    2.5378   -4.7504   -4.8139 H   0  0
    1.3573   -4.4455   -6.7229 H   0  0
   -1.8608   -4.1800   -5.9565 H   0  0
   -1.7969   -4.5359   -2.4379 H   0  0
  1  2  1  0
  1 39  1  0
  1 40  1  0
  1 41  1  0
  2  3  1  0
  3  4  2  0
  3  5  1  0
  5  6  2  0
  5 24  1  0
  6  7  1  0
  6 42  1  0
  7  8  1  0
  8  9  1  0
  8 21  1  0
  8 43  1  0
  9 10  1  0
 10 11  1  0
 10 19  1  0
 10 44  1  0
 11 12  1  0
 12 13  1  0
 12 15  1  0
 12 45  1  0
 13 14  1  0
 13 46  1  0
 13 47  1  0
 14 48  1  0
 15 16  1  0
 15 17  1  0
 15 49  1  0
 16 50  1  0
 17 18  1  0
 17 19  1  0
 17 51  1  0
 18 52  1  0
 19 20  1  0
 19 53  1  0
 20 54  1  0
 21 22  2  0
 21 24  1  0
 22 23  1  0
 22 55  1  0
 23 56  1  0
 23 57  1  0
 23 58  1  0
 24 25  1  0
 24 59  1  0
 25 26  1  0
 25 60  1  0
 25 61  1  0
 26 27  2  0
 26 28  1  0
 28 29  1  0
 29 30  1  0
 29 62  1  0
 29 63  1  0
 30 31  1  0
 30 64  1  0
 30 65  1  0
 31 32  2  0
 31 38  1  0
 32 33  1  0
 32 66  1  0
 33 34  2  0
 33 67  1  0
 34 35  1  0
 34 36  1  0
 35 68  1  0
 36 37  1  0
 36 38  2  0
 37 69  1  0
 38 70  1  0
M  END
> <Mol2_MolInfo_Name>
9926

> <Mol2_MolInfo_Type>
SMALL

> <Mol2_MolInfo_Charge>
USER_CHARGES

> <Mol2_Substructures>
     1 UNK         1 GROUP             0       ****    0 ROOT    

> <Name>
9926

$$$$
9926
  SciTegic06232017503D

 70 72  0  0  0  0            999 V2000
   -6.3456    2.6124   -1.9499 C   0  0
   -4.9452    2.4842   -1.7492 O   0  0
   -4.4188    1.3450   -1.2303 C   0  0
   -5.0865    0.3570   -0.9146 O   0  0
   -2.9479    1.3683   -1.1171 C   0  0
   -2.3313    2.5174   -0.7868 C   0  0
   -1.0142    2.6979   -0.5400 O   0  0
   -0.2006    1.5406   -0.5022 C   0  0  2  0  0  0
    1.1107    1.9385   -0.7707 O   0  0
    1.7629    2.6037    0.2710 C   0  0  1  0  0  0
    2.2569    1.6597    1.1887 O   0  0
    2.9059    2.2365    2.3294 C   0  0  1  0  0  0
    3.2098    1.0716    3.2981 C   0  0
    3.5855    1.5285    4.5817 O   0  0
    4.1634    3.0174    1.8545 C   0  0  2  0  0  0
    4.8716    3.6296    2.9187 O   0  0
    3.7824    4.0403    0.7588 C   0  0  2  0  0  0
    3.1142    5.1767    1.2927 O   0  0
    2.9515    3.3557   -0.3543 C   0  0  2  0  0  0
    2.5437    4.2736   -1.3548 O   0  0
   -0.6335    0.4086   -1.4697 C   0  0
    0.2242   -0.3143   -2.2403 C   0  0
    1.7348   -0.2093   -2.3538 C   0  0
   -2.1565    0.0824   -1.4185 C   0  0  2  0  0  0
   -2.6838   -0.6992   -2.6770 C   0  0
   -2.5347    0.0138   -4.0338 C   0  0
   -2.9421    1.1627   -4.2162 O   0  0
   -1.8875   -0.7483   -4.9387 O   0  0
   -1.5737   -0.2360   -6.2265 C   0  0
   -0.6995   -1.2516   -6.9759 C   0  0
   -0.2260   -0.7259   -8.3214 C   0  0
   -0.9127   -1.0577   -9.4930 C   0  0
   -0.4744   -0.5719  -10.7251 C   0  0
    0.6518    0.2502  -10.7959 C   0  0
    1.0651    0.7164  -12.0183 O   0  0
    1.3423    0.5881   -9.6243 C   0  0
    2.4501    1.3973   -9.6636 O   0  0
    0.9014    0.0984   -8.3932 C   0  0
   -6.5710    3.5918   -2.3714 H   0  0
   -6.8869    2.5147   -1.0076 H   0  0
   -6.7123    1.8525   -2.6415 H   0  0
   -2.8448    3.4629   -0.6791 H   0  0
   -0.2723    1.1832    0.5286 H   0  0
    1.0802    3.2697    0.8070 H   0  0
    2.2054    2.9156    2.8218 H   0  0
    2.3213    0.4518    3.4248 H   0  0
    3.9896    0.4220    2.8987 H   0  0
    3.7270    0.7663    5.1486 H   0  0
    4.8611    2.3003    1.4186 H   0  0
    5.2068    2.9409    3.4979 H   0  0
    4.6975    4.4355    0.3147 H   0  0
    2.3104    4.8835    1.7277 H   0  0
    3.5710    2.6132   -0.8612 H   0  0
    2.2939    5.0964   -0.9272 H   0  0
   -0.1637   -1.1056   -2.8605 H   0  0
    2.1305   -1.0925   -2.8556 H   0  0
    2.2110   -0.1532   -1.3747 H   0  0
    2.0147    0.6628   -2.9453 H   0  0
   -2.2999   -0.5669   -0.5534 H   0  0
   -2.1915   -1.6705   -2.7289 H   0  0
   -3.7372   -0.9486   -2.5586 H   0  0
   -2.4898   -0.0355   -6.7844 H   0  0
   -1.0364    0.7090   -6.1254 H   0  0
    0.1751   -1.5080   -6.3752 H   0  0
   -1.2422   -2.1883   -7.1146 H   0  0
   -1.7869   -1.6915   -9.4523 H   0  0
   -1.0121   -0.8349  -11.6245 H   0  0
    1.8520    1.2631  -11.9561 H   0  0
    2.8251    1.5594   -8.7947 H   0  0
    1.4337    0.3600   -7.4894 H   0  0
  1  2  1  0
  1 39  1  0
  1 40  1  0
  1 41  1  0
  2  3  1  0
  3  4  2  0
  3  5  1  0
  5  6  2  0
  5 24  1  0
  6  7  1  0
  6 42  1  0
  7  8  1  0
  8  9  1  0
  8 21  1  0
  8 43  1  0
  9 10  1  0
 10 11  1  0
 10 19  1  0
 10 44  1  0
 11 12  1  0
 12 13  1  0
 12 15  1  0
 12 45  1  0
 13 14  1  0
 13 46  1  0
 13 47  1  0
 14 48  1  0
 15 16  1  0
 15 17  1  0
 15 49  1  0
 16 50  1  0
 17 18  1  0
 17 19  1  0
 17 51  1  0
 18 52  1  0
 19 20  1  0
 19 53  1  0
 20 54  1  0
 21 22  2  0
 21 24  1  0
 22 23  1  0
 22 55  1  0
 23 56  1  0
 23 57  1  0
 23 58  1  0
 24 25  1  0
 24 59  1  0
 25 26  1  0
 25 60  1  0
 25 61  1  0
 26 27  2  0
 26 28  1  0
 28 29  1  0
 29 30  1  0
 29 62  1  0
 29 63  1  0
 30 31  1  0
 30 64  1  0
 30 65  1  0
 31 32  2  0
 31 38  1  0
 32 33  1  0
 32 66  1  0
 33 34  2  0
 33 67  1  0
 34 35  1  0
 34 36  1  0
 35 68  1  0
 36 37  1  0
 36 38  2  0
 37 69  1  0
 38 70  1  0
M  END
> <Mol2_MolInfo_Name>
9926

> <Mol2_MolInfo_Type>
SMALL

> <Mol2_MolInfo_Charge>
USER_CHARGES

> <Mol2_Substructures>
     1 UNK         1 GROUP             0       ****    0 ROOT    

> <Name>
9926

$$$$
9926
  SciTegic06232017503D

 70 72  0  0  0  0            999 V2000
   -5.3257    2.8891    1.3407 C   0  0
   -4.1124    2.3576    0.8269 O   0  0
   -3.6516    1.1454    1.2362 C   0  0
   -4.2404    0.4395    2.0600 O   0  0
   -2.3731    0.7352    0.6113 C   0  0
   -1.7444    1.5091   -0.2953 C   0  0
   -0.5899    1.2297   -0.9501 O   0  0
    0.1172    0.0446   -0.5985 C   0  0  1  0  0  0
    1.5027    0.2652   -0.6719 O   0  0
    1.9798    1.4998   -0.1939 C   0  0  1  0  0  0
    1.6395    1.6846    1.1592 O   0  0
    2.0477    2.9462    1.6986 C   0  0  1  0  0  0
    1.4210    3.0956    3.1028 C   0  0
    1.9277    2.1455    4.0206 O   0  0
    3.5963    3.0431    1.6664 C   0  0  2  0  0  0
    4.0750    4.2620    2.2096 O   0  0
    4.1165    2.7887    0.2329 C   0  0  2  0  0  0
    3.8755    3.8957   -0.6257 O   0  0
    3.5138    1.4769   -0.3320 C   0  0  2  0  0  0
    3.9268    1.2367   -1.6666 O   0  0
   -0.2922   -0.6072    0.7511 C   0  0
    0.5283   -1.1742    1.6712 C   0  0
    2.0290   -1.3991    1.6297 C   0  0
   -1.8105   -0.6299    0.9945 C   0  0  2  0  0  0
   -2.5154   -1.7448    0.1678 C   0  0
   -2.0930   -3.1837    0.4957 C   0  0
   -1.8963   -4.0077   -0.3987 O   0  0
   -1.9689   -3.4055    1.8191 O   0  0
   -1.5639   -4.6732    2.3180 C   0  0
   -1.4246   -4.6076    3.8480 C   0  0
   -2.7302   -4.2655    4.5539 C   0  0
   -3.0457   -2.9348    4.8466 C   0  0
   -4.2479   -2.6207    5.4798 C   0  0
   -5.1443   -3.6334    5.8261 C   0  0
   -6.3222   -3.3026    6.4471 O   0  0
   -4.8332   -4.9684    5.5357 C   0  0
   -5.6975   -5.9830    5.8632 O   0  0
   -3.6282   -5.2791    4.9017 C   0  0
   -5.5215    3.8638    0.8939 H   0  0
   -5.2697    3.0165    2.4228 H   0  0
   -6.1678    2.2347    1.1113 H   0  0
   -2.1273    2.4568   -0.6465 H   0  0
   -0.1153   -0.6338   -1.4203 H   0  0
    1.5302    2.3207   -0.7581 H   0  0
    1.6256    3.7414    1.0798 H   0  0
    1.6096    4.0932    3.5006 H   0  0
    0.3373    2.9856    3.0459 H   0  0
    1.4902    2.2730    4.8658 H   0  0
    4.0044    2.2628    2.3110 H   0  0
    3.9250    4.2531    3.1578 H   0  0
    5.2030    2.6979    0.2791 H   0  0
    3.9688    3.5965   -1.5335 H   0  0
    3.8839    0.6360    0.2573 H   0  0
    3.6277    0.3607   -1.9223 H   0  0
    0.0741   -1.5724    2.5676 H   0  0
    2.2664   -2.3359    2.1338 H   0  0
    2.5483   -0.5983    2.1559 H   0  0
    2.4234   -1.4786    0.6189 H   0  0
   -1.9921   -0.8022    2.0586 H   0  0
   -3.5935   -1.6876    0.3201 H   0  0
   -2.3554   -1.5729   -0.8974 H   0  0
   -2.2940   -5.4342    2.0371 H   0  0
   -0.6078   -4.9564    1.8744 H   0  0
   -1.0585   -5.5639    4.2240 H   0  0
   -0.6594   -3.8795    4.1229 H   0  0
   -2.3634   -2.1412    4.5778 H   0  0
   -4.4821   -1.5887    5.6982 H   0  0
   -6.8649   -4.0714    6.6377 H   0  0
   -5.3713   -6.8487    5.6070 H   0  0
   -3.3908   -6.3089    4.6750 H   0  0
  1  2  1  0
  1 39  1  0
  1 40  1  0
  1 41  1  0
  2  3  1  0
  3  4  2  0
  3  5  1  0
  5  6  2  0
  5 24  1  0
  6  7  1  0
  6 42  1  0
  7  8  1  0
  8  9  1  0
  8 21  1  0
  8 43  1  0
  9 10  1  0
 10 11  1  0
 10 19  1  0
 10 44  1  0
 11 12  1  0
 12 13  1  0
 12 15  1  0
 12 45  1  0
 13 14  1  0
 13 46  1  0
 13 47  1  0
 14 48  1  0
 15 16  1  0
 15 17  1  0
 15 49  1  0
 16 50  1  0
 17 18  1  0
 17 19  1  0
 17 51  1  0
 18 52  1  0
 19 20  1  0
 19 53  1  0
 20 54  1  0
 21 22  2  0
 21 24  1  0
 22 23  1  0
 22 55  1  0
 23 56  1  0
 23 57  1  0
 23 58  1  0
 24 25  1  0
 24 59  1  0
 25 26  1  0
 25 60  1  0
 25 61  1  0
 26 27  2  0
 26 28  1  0
 28 29  1  0
 29 30  1  0
 29 62  1  0
 29 63  1  0
 30 31  1  0
 30 64  1  0
 30 65  1  0
 31 32  2  0
 31 38  1  0
 32 33  1  0
 32 66  1  0
 33 34  2  0
 33 67  1  0
 34 35  1  0
 34 36  1  0
 35 68  1  0
 36 37  1  0
 36 38  2  0
 37 69  1  0
 38 70  1  0
M  END
> <Mol2_MolInfo_Name>
9926

> <Mol2_MolInfo_Type>
SMALL

> <Mol2_MolInfo_Charge>
USER_CHARGES

> <Mol2_Substructures>
     1 UNK         1 GROUP             0       ****    0 ROOT    

> <Name>
9926

$$$$
9926
  SciTegic06232017503D

 70 72  0  0  0  0            999 V2000
   -3.7503    4.0500   -2.1678 C   0  0
   -2.7232    3.1679   -1.7383 O   0  0
   -3.0093    1.8885   -1.3860 C   0  0
   -4.1402    1.3977   -1.4211 O   0  0
   -1.8232    1.1036   -1.0008 C   0  0
   -0.8479    1.6925   -0.2798 C   0  0
    0.2570    1.0952    0.2332 O   0  0
    0.3347   -0.3131    0.0963 C   0  0  2  0  0  0
    1.6638   -0.7143    0.2857 O   0  0
    2.1249   -0.6778    1.6140 C   0  0  2  0  0  0
    2.3011    0.6392    2.0841 O   0  0
    3.3094    1.4024    1.4042 C   0  0  1  0  0  0
    3.2549    2.8536    1.9309 C   0  0
    3.6145    2.9415    3.2963 O   0  0
    4.6954    0.7209    1.5364 C   0  0  2  0  0  0
    5.7306    1.4534    0.9021 O   0  0
    4.6219   -0.7360    1.0349 C   0  0  2  0  0  0
    4.5663   -0.8150   -0.3814 O   0  0
    3.4443   -1.4725    1.7187 C   0  0  2  0  0  0
    3.3048   -2.8154    1.2896 O   0  0
   -0.2315   -0.8212   -1.2522 C   0  0
    0.4327   -1.5955   -2.1502 C   0  0
    1.8488   -2.1306   -2.0811 C   0  0
   -1.7053   -0.3657   -1.4585 C   0  0  2  0  0  0
   -2.2913   -0.6573   -2.8877 C   0  0
   -1.7064    0.1278   -4.0775 C   0  0
   -0.7804    0.9324   -3.9511 O   0  0
   -2.3306   -0.1799   -5.2318 O   0  0
   -1.9434    0.4415   -6.4503 C   0  0
   -2.8133   -0.0899   -7.5980 C   0  0
   -2.4570    0.5466   -8.9320 C   0  0
   -3.0693    1.7395   -9.3278 C   0  0
   -2.7387    2.3278  -10.5485 C   0  0
   -1.7936    1.7290  -11.3833 C   0  0
   -1.4832    2.3255  -12.5791 O   0  0
   -1.1766    0.5332  -10.9919 C   0  0
   -0.2443   -0.0759  -11.7940 O   0  0
   -1.5098   -0.0525   -9.7685 C   0  0
   -3.3248    5.0240   -2.4088 H   0  0
   -4.4988    4.1892   -1.3865 H   0  0
   -4.2472    3.6664   -3.0601 H   0  0
   -0.8395    2.7438   -0.0266 H   0  0
   -0.2776   -0.7130    0.9086 H   0  0
    1.3733   -1.0952    2.2874 H   0  0
    3.0435    1.4482    0.3460 H   0  0
    3.9252    3.4940    1.3566 H   0  0
    2.2523    3.2638    1.8042 H   0  0
    3.5744    3.8624    3.5644 H   0  0
    4.9680    0.6987    2.5928 H   0  0
    5.6195    1.3700   -0.0483 H   0  0
    5.5560   -1.2327    1.3030 H   0  0
    4.2341   -1.6838   -0.6205 H   0  0
    3.6709   -1.5411    2.7840 H   0  0
    2.6890   -3.2613    1.8758 H   0  0
   -0.0684   -1.9068   -3.0521 H   0  0
    2.0399   -2.7894   -2.9285 H   0  0
    2.0098   -2.7111   -1.1733 H   0  0
    2.5668   -1.3127   -2.1306 H   0  0
   -2.3044   -0.9472   -0.7560 H   0  0
   -2.1990   -1.7211   -3.1056 H   0  0
   -3.3649   -0.4722   -2.8795 H   0  0
   -2.0566    1.5239   -6.3658 H   0  0
   -0.8908    0.2362   -6.6532 H   0  0
   -2.7140   -1.1738   -7.6763 H   0  0
   -3.8686    0.0907   -7.3863 H   0  0
   -3.8006    2.2144   -8.6898 H   0  0
   -3.2172    3.2506  -10.8434 H   0  0
   -0.8150    1.8404  -13.0691 H   0  0
    0.1008   -0.8880  -11.4164 H   0  0
   -1.0316   -0.9732   -9.4656 H   0  0
  1  2  1  0
  1 39  1  0
  1 40  1  0
  1 41  1  0
  2  3  1  0
  3  4  2  0
  3  5  1  0
  5  6  2  0
  5 24  1  0
  6  7  1  0
  6 42  1  0
  7  8  1  0
  8  9  1  0
  8 21  1  0
  8 43  1  0
  9 10  1  0
 10 11  1  0
 10 19  1  0
 10 44  1  0
 11 12  1  0
 12 13  1  0
 12 15  1  0
 12 45  1  0
 13 14  1  0
 13 46  1  0
 13 47  1  0
 14 48  1  0
 15 16  1  0
 15 17  1  0
 15 49  1  0
 16 50  1  0
 17 18  1  0
 17 19  1  0
 17 51  1  0
 18 52  1  0
 19 20  1  0
 19 53  1  0
 20 54  1  0
 21 22  2  0
 21 24  1  0
 22 23  1  0
 22 55  1  0
 23 56  1  0
 23 57  1  0
 23 58  1  0
 24 25  1  0
 24 59  1  0
 25 26  1  0
 25 60  1  0
 25 61  1  0
 26 27  2  0
 26 28  1  0
 28 29  1  0
 29 30  1  0
 29 62  1  0
 29 63  1  0
 30 31  1  0
 30 64  1  0
 30 65  1  0
 31 32  2  0
 31 38  1  0
 32 33  1  0
 32 66  1  0
 33 34  2  0
 33 67  1  0
 34 35  1  0
 34 36  1  0
 35 68  1  0
 36 37  1  0
 36 38  2  0
 37 69  1  0
 38 70  1  0
M  END
> <Mol2_MolInfo_Name>
9926

> <Mol2_MolInfo_Type>
SMALL

> <Mol2_MolInfo_Charge>
USER_CHARGES

> <Mol2_Substructures>
     1 UNK         1 GROUP             0       ****    0 ROOT    

> <Name>
9926

$$$$
9926
  SciTegic06232017503D

 70 72  0  0  0  0            999 V2000
   -5.9400    0.2324    2.9353 C   0  0
   -4.6191    0.1256    2.4235 O   0  0
   -3.8915    1.2321    2.1295 C   0  0
   -4.3137    2.3830    2.2829 O   0  0
   -2.5409    0.9329    1.6034 C   0  0
   -1.7124    1.9522    1.2889 C   0  0
   -0.4512    1.8540    0.7885 O   0  0
    0.0038    0.5472    0.4663 C   0  0  1  0  0  0
    1.4012    0.4897    0.3911 O   0  0
    2.0268    1.4986   -0.3609 C   0  0  2  0  0  0
    1.5579    1.5729   -1.6888 O   0  0
    1.8694    0.4477   -2.5228 C   0  0  1  0  0  0
    1.1747    0.6622   -3.8860 C   0  0
    1.6903    1.7837   -4.5762 O   0  0
    3.4020    0.2302   -2.6055 C   0  0  2  0  0  0
    3.7652   -0.8521   -3.4448 O   0  0
    3.9930    0.0861   -1.1892 C   0  0  2  0  0  0
    3.6722   -1.1647   -0.5973 O   0  0
    3.5548    1.2871   -0.3183 C   0  0  2  0  0  0
    4.0587    1.2234    1.0045 O   0  0
   -0.5446   -0.5257    1.4337 C   0  0
    0.1647   -1.3833    2.2062 C   0  0
    1.6683   -1.5129    2.3522 C   0  0
   -2.0837   -0.5281    1.4795 C   0  0  2  0  0  0
   -2.7055   -1.2207    0.2356 C   0  0
   -2.5151   -2.7405    0.2432 C   0  0
   -3.3809   -3.4866    0.7041 O   0  0
   -1.3250   -3.1208   -0.2664 O   0  0
   -0.9291   -4.4865   -0.2208 C   0  0
    0.4430   -4.6739   -0.8907 C   0  0
    0.4383   -4.4005   -2.3896 C   0  0
    1.2822   -3.4276   -2.9332 C   0  0
    1.2907   -3.1942   -4.3085 C   0  0
    0.4524   -3.9248   -5.1517 C   0  0
    0.4767   -3.6752   -6.5010 O   0  0
   -0.3952   -4.9012   -4.6135 C   0  0
   -1.2259   -5.6371   -5.4201 O   0  0
   -0.3958   -5.1377   -3.2375 C   0  0
   -6.3512   -0.7621    3.1077 H   0  0
   -6.5912    0.7524    2.2312 H   0  0
   -5.9504    0.7737    3.8823 H   0  0
   -1.9625    2.9941    1.4343 H   0  0
   -0.3647    0.3731   -0.5463 H   0  0
    1.7639    2.4724    0.0560 H   0  0
    1.4142   -0.4381   -2.0752 H   0  0
    1.2920   -0.2141   -4.5224 H   0  0
    0.1019    0.7989   -3.7459 H   0  0
    1.2218    1.8727   -5.4093 H   0  0
    3.8494    1.1108   -3.0693 H   0  0
    3.5518   -1.6707   -2.9902 H   0  0
    5.0810    0.0849   -1.2748 H   0  0
    3.8052   -1.0899    0.3511 H   0  0
    3.9977    2.1884   -0.7456 H   0  0
    3.9018    2.0687    1.4321 H   0  0
   -0.3877   -2.0753    2.8260 H   0  0
    1.9027   -2.0734    3.2573 H   0  0
    2.1585   -0.5438    2.4376 H   0  0
    2.0840   -2.0592    1.5060 H   0  0
   -2.3981   -1.0642    2.3789 H   0  0
   -3.7784   -1.0294    0.2048 H   0  0
   -2.3009   -0.8072   -0.6883 H   0  0
   -0.8665   -4.8021    0.8218 H   0  0
   -1.6786   -5.1160   -0.7034 H   0  0
    1.1834   -4.0473   -0.3900 H   0  0
    0.7752   -5.7024   -0.7450 H   0  0
    1.9370   -2.8547   -2.2930 H   0  0
    1.9531   -2.4475   -4.7197 H   0  0
    1.1086   -2.9952   -6.7452 H   0  0
   -1.1356   -5.4060   -6.3475 H   0  0
   -1.0452   -5.8982   -2.8279 H   0  0
  1  2  1  0
  1 39  1  0
  1 40  1  0
  1 41  1  0
  2  3  1  0
  3  4  2  0
  3  5  1  0
  5  6  2  0
  5 24  1  0
  6  7  1  0
  6 42  1  0
  7  8  1  0
  8  9  1  0
  8 21  1  0
  8 43  1  0
  9 10  1  0
 10 11  1  0
 10 19  1  0
 10 44  1  0
 11 12  1  0
 12 13  1  0
 12 15  1  0
 12 45  1  0
 13 14  1  0
 13 46  1  0
 13 47  1  0
 14 48  1  0
 15 16  1  0
 15 17  1  0
 15 49  1  0
 16 50  1  0
 17 18  1  0
 17 19  1  0
 17 51  1  0
 18 52  1  0
 19 20  1  0
 19 53  1  0
 20 54  1  0
 21 22  2  0
 21 24  1  0
 22 23  1  0
 22 55  1  0
 23 56  1  0
 23 57  1  0
 23 58  1  0
 24 25  1  0
 24 59  1  0
 25 26  1  0
 25 60  1  0
 25 61  1  0
 26 27  2  0
 26 28  1  0
 28 29  1  0
 29 30  1  0
 29 62  1  0
 29 63  1  0
 30 31  1  0
 30 64  1  0
 30 65  1  0
 31 32  2  0
 31 38  1  0
 32 33  1  0
 32 66  1  0
 33 34  2  0
 33 67  1  0
 34 35  1  0
 34 36  1  0
 35 68  1  0
 36 37  1  0
 36 38  2  0
 37 69  1  0
 38 70  1  0
M  END
> <Mol2_MolInfo_Name>
9926

> <Mol2_MolInfo_Type>
SMALL

> <Mol2_MolInfo_Charge>
USER_CHARGES

> <Mol2_Substructures>
     1 UNK         1 GROUP             0       ****    0 ROOT    

> <Name>
9926

$$$$
9926
  SciTegic06232017503D

 70 72  0  0  0  0            999 V2000
   -5.3812    2.0284    1.4721 C   0  0
   -4.1055    1.4479    1.2413 O   0  0
   -3.9897    0.1558    0.8359 C   0  0
   -4.9551   -0.5849    0.6302 O   0  0
   -2.5955   -0.2858    0.6147 C   0  0
   -1.5741    0.3440    1.2197 C   0  0
   -0.2560    0.0633    1.1443 O   0  0
    0.1603   -1.0544    0.3875 C   0  0  2  0  0  0
    1.3086   -0.7364   -0.3623 O   0  0
    1.1280   -0.1369   -1.6179 C   0  0  1  0  0  0
    0.4846    1.1144   -1.5343 O   0  0
    1.2101    2.1512   -0.8646 C   0  0  2  0  0  0
    0.2752    3.3712   -0.7306 C   0  0
    0.8579    4.3809    0.0684 O   0  0
    2.5485    2.4296   -1.5885 C   0  0  2  0  0  0
    2.3585    3.0417   -2.8551 O   0  0
    3.3515    1.1160   -1.6733 C   0  0  2  0  0  0
    4.6061    1.2757   -2.3150 O   0  0
    2.5097   -0.0268   -2.2920 C   0  0  2  0  0  0
    2.3736    0.0927   -3.6964 O   0  0
   -0.8986   -1.8819   -0.3890 C   0  0
   -0.5796   -3.0449   -1.0034 C   0  0
    0.7819   -3.7139   -1.0720 C   0  0
   -2.3695   -1.4213   -0.3828 C   0  0  2  0  0  0
   -2.9008   -1.1164   -1.8231 C   0  0
   -2.3700    0.1513   -2.5124 C   0  0
   -2.5136    1.2688   -2.0117 O   0  0
   -1.7588   -0.1129   -3.6863 O   0  0
   -1.2220    0.9453   -4.4707 C   0  0
   -0.6418    0.3840   -5.7759 C   0  0
   -0.1016    1.4795   -6.6824 C   0  0
   -0.9725    2.2035   -7.5022 C   0  0
   -0.4823    3.2127   -8.3309 C   0  0
    0.8824    3.5064   -8.3482 C   0  0
    1.3430    4.5025   -9.1715 O   0  0
    1.7602    2.7849   -7.5285 C   0  0
    3.1059    3.0546   -7.5243 O   0  0
    1.2652    1.7752   -6.7003 C   0  0
   -5.2638    3.0638    1.7914 H   0  0
   -5.9213    1.4907    2.2531 H   0  0
   -5.9850    2.0197    0.5635 H   0  0
   -1.7045    1.1952    1.8733 H   0  0
    0.5288   -1.6702    1.2090 H   0  0
    0.4566   -0.7409   -2.2272 H   0  0
    1.4311    1.8052    0.1472 H   0  0
    0.0187    3.7836   -1.7068 H   0  0
   -0.6634    3.0719   -0.2622 H   0  0
    0.2420    5.1150    0.1291 H   0  0
    3.1214    3.1514   -1.0044 H   0  0
    1.8878    2.4240   -3.4202 H   0  0
    3.6034    0.8087   -0.6567 H   0  0
    4.9571    2.1397   -2.0857 H   0  0
    3.0247   -0.9774   -2.1423 H   0  0
    3.2215    0.3662   -4.0555 H   0  0
   -1.3632   -3.5945   -1.5054 H   0  0
    0.6986   -4.7533   -0.7550 H   0  0
    1.5269   -3.2359   -0.4380 H   0  0
    1.1512   -3.6973   -2.0974 H   0  0
   -2.9414   -2.2758   -0.0142 H   0  0
   -2.7081   -1.9737   -2.4686 H   0  0
   -3.9866   -1.0267   -1.7963 H   0  0
   -2.0067    1.6698   -4.6958 H   0  0
   -0.4449    1.4698   -3.9124 H   0  0
    0.1473   -0.3376   -5.5578 H   0  0
   -1.4073   -0.1742   -6.3171 H   0  0
   -2.0308    1.9868   -7.4980 H   0  0
   -1.1651    3.7658   -8.9596 H   0  0
    2.2905    4.6359   -9.0922 H   0  0
    3.5979    2.4969   -6.9175 H   0  0
    1.9449    1.2205   -6.0711 H   0  0
  1  2  1  0
  1 39  1  0
  1 40  1  0
  1 41  1  0
  2  3  1  0
  3  4  2  0
  3  5  1  0
  5  6  2  0
  5 24  1  0
  6  7  1  0
  6 42  1  0
  7  8  1  0
  8  9  1  0
  8 21  1  0
  8 43  1  0
  9 10  1  0
 10 11  1  0
 10 19  1  0
 10 44  1  0
 11 12  1  0
 12 13  1  0
 12 15  1  0
 12 45  1  0
 13 14  1  0
 13 46  1  0
 13 47  1  0
 14 48  1  0
 15 16  1  0
 15 17  1  0
 15 49  1  0
 16 50  1  0
 17 18  1  0
 17 19  1  0
 17 51  1  0
 18 52  1  0
 19 20  1  0
 19 53  1  0
 20 54  1  0
 21 22  2  0
 21 24  1  0
 22 23  1  0
 22 55  1  0
 23 56  1  0
 23 57  1  0
 23 58  1  0
 24 25  1  0
 24 59  1  0
 25 26  1  0
 25 60  1  0
 25 61  1  0
 26 27  2  0
 26 28  1  0
 28 29  1  0
 29 30  1  0
 29 62  1  0
 29 63  1  0
 30 31  1  0
 30 64  1  0
 30 65  1  0
 31 32  2  0
 31 38  1  0
 32 33  1  0
 32 66  1  0
 33 34  2  0
 33 67  1  0
 34 35  1  0
 34 36  1  0
 35 68  1  0
 36 37  1  0
 36 38  2  0
 37 69  1  0
 38 70  1  0
M  END
> <Mol2_MolInfo_Name>
9926

> <Mol2_MolInfo_Type>
SMALL

> <Mol2_MolInfo_Charge>
USER_CHARGES

> <Mol2_Substructures>
     1 UNK         1 GROUP             0       ****    0 ROOT    

> <Name>
9926

$$$$
9926
  SciTegic06232017503D

 70 72  0  0  0  0            999 V2000
   -6.0435    1.3806    2.0816 C   0  0
   -4.8202    0.7617    1.7092 O   0  0
   -4.0736    1.2474    0.6859 C   0  0
   -4.3956    2.2372    0.0205 O   0  0
   -2.8334    0.4789    0.4373 C   0  0
   -2.0192    0.8434   -0.5739 C   0  0
   -0.8624    0.2388   -0.9493 O   0  0
   -0.4378   -0.9015   -0.2138 C   0  0  1  0  0  0
    0.9588   -0.9345   -0.2114 O   0  0
    1.5754   -1.1473   -1.4534 C   0  0  1  0  0  0
    1.5835    0.0174   -2.2506 O   0  0
    2.2768    1.1403   -1.6839 C   0  0  2  0  0  0
    2.0254    2.3665   -2.5879 C   0  0
    2.5900    3.5409   -2.0389 O   0  0
    3.7717    0.7994   -1.4491 C   0  0  2  0  0  0
    4.4979    0.7048   -2.6658 O   0  0
    3.8721   -0.4830   -0.5960 C   0  0  2  0  0  0
    5.2110   -0.8739   -0.3432 O   0  0
    3.0129   -1.6293   -1.1837 C   0  0  2  0  0  0
    3.5735   -2.1955   -2.3555 O   0  0
   -0.9692   -0.9299    1.2408 C   0  0
   -0.2443   -1.0879    2.3760 C   0  0
    1.2424   -1.3441    2.5390 C   0  0
   -2.4930   -0.7208    1.3265 C   0  0  2  0  0  0
   -3.2971   -1.9714    0.8695 C   0  0
   -3.1904   -3.2104    1.7693 C   0  0
   -2.5818   -3.2019    2.8416 O   0  0
   -3.8401   -4.2706    1.2366 O   0  0
   -3.8023   -5.5568    1.8541 C   0  0
   -2.7763   -6.4863    1.1747 C   0  0
   -1.3433   -5.9715    1.2203 C   0  0
   -0.6271   -5.9877    2.4206 C   0  0
    0.6829   -5.5109    2.4632 C   0  0
    1.2899   -5.0193    1.3061 C   0  0
    2.5846   -4.5694    1.3716 O   0  0
    0.5756   -4.9979    0.1007 C   0  0
    1.1453   -4.5252   -1.0541 O   0  0
   -0.7369   -5.4720    0.0633 C   0  0
   -6.4840    0.8500    2.9255 H   0  0
   -6.7582    1.3616    1.2576 H   0  0
   -5.8833    2.4181    2.3787 H   0  0
   -2.2117    1.6844   -1.2255 H   0  0
   -0.8146   -1.7626   -0.7696 H   0  0
    1.0098   -1.8759   -2.0386 H   0  0
    1.8195    1.3649   -0.7172 H   0  0
    2.4296    2.2091   -3.5883 H   0  0
    0.9534    2.5295   -2.7052 H   0  0
    2.3826    4.2794   -2.6164 H   0  0
    4.2395    1.6187   -0.9012 H   0  0
    4.5872    1.5866   -3.0353 H   0  0
    3.4731   -0.2485    0.3924 H   0  0
    5.6217   -1.1012   -1.1808 H   0  0
    2.9559   -2.4477   -0.4647 H   0  0
    3.8882   -1.4794   -2.9128 H   0  0
   -0.7734   -1.0555    3.3179 H   0  0
    1.4321   -1.7981    3.5117 H   0  0
    1.7975   -0.4072    2.4912 H   0  0
    1.6297   -2.0294    1.7878 H   0  0
   -2.7543   -0.4867    2.3615 H   0  0
   -4.3554   -1.7157    0.8136 H   0  0
   -2.9997   -2.2549   -0.1404 H   0  0
   -3.6057   -5.4868    2.9255 H   0  0
   -4.7944   -5.9988    1.7597 H   0  0
   -2.8054   -7.4674    1.6500 H   0  0
   -3.0718   -6.6601    0.1388 H   0  0
   -1.0860   -6.3651    3.3228 H   0  0
    1.2252   -5.5287    3.3974 H   0  0
    2.9627   -4.6449    2.2505 H   0  0
    0.5604   -4.5830   -1.8128 H   0  0
   -1.2862   -5.4525   -0.8671 H   0  0
  1  2  1  0
  1 39  1  0
  1 40  1  0
  1 41  1  0
  2  3  1  0
  3  4  2  0
  3  5  1  0
  5  6  2  0
  5 24  1  0
  6  7  1  0
  6 42  1  0
  7  8  1  0
  8  9  1  0
  8 21  1  0
  8 43  1  0
  9 10  1  0
 10 11  1  0
 10 19  1  0
 10 44  1  0
 11 12  1  0
 12 13  1  0
 12 15  1  0
 12 45  1  0
 13 14  1  0
 13 46  1  0
 13 47  1  0
 14 48  1  0
 15 16  1  0
 15 17  1  0
 15 49  1  0
 16 50  1  0
 17 18  1  0
 17 19  1  0
 17 51  1  0
 18 52  1  0
 19 20  1  0
 19 53  1  0
 20 54  1  0
 21 22  2  0
 21 24  1  0
 22 23  1  0
 22 55  1  0
 23 56  1  0
 23 57  1  0
 23 58  1  0
 24 25  1  0
 24 59  1  0
 25 26  1  0
 25 60  1  0
 25 61  1  0
 26 27  2  0
 26 28  1  0
 28 29  1  0
 29 30  1  0
 29 62  1  0
 29 63  1  0
 30 31  1  0
 30 64  1  0
 30 65  1  0
 31 32  2  0
 31 38  1  0
 32 33  1  0
 32 66  1  0
 33 34  2  0
 33 67  1  0
 34 35  1  0
 34 36  1  0
 35 68  1  0
 36 37  1  0
 36 38  2  0
 37 69  1  0
 38 70  1  0
M  END
> <Mol2_MolInfo_Name>
9926

> <Mol2_MolInfo_Type>
SMALL

> <Mol2_MolInfo_Charge>
USER_CHARGES

> <Mol2_Substructures>
     1 UNK         1 GROUP             0       ****    0 ROOT    

> <Name>
9926

$$$$
9926
  SciTegic06232017503D

 70 72  0  0  0  0            999 V2000
   -4.5956    4.0998   -1.3161 C   0  0
   -3.6300    3.1146   -0.9775 O   0  0
   -3.9926    1.9831   -0.3225 C   0  0
   -5.1491    1.7113    0.0082 O   0  0
   -2.8663    1.0720   -0.0722 C   0  0
   -1.7081    1.5853    0.3993 C   0  0
   -0.5975    0.8836    0.7568 O   0  0
   -0.6967   -0.5309    0.6789 C   0  0  2  0  0  0
    0.5769   -1.1013    0.6074 O   0  0
    1.3906   -0.9217    1.7315 C   0  0  2  0  0  0
    2.0018    0.3456    1.7008 O   0  0
    2.7637    0.6341    2.8826 C   0  0  2  0  0  0
    3.1903    2.1169    2.8606 C   0  0
    2.0585    2.9597    2.9439 O   0  0
    3.9546   -0.3569    2.9895 C   0  0  2  0  0  0
    4.9663   -0.0871    2.0306 O   0  0
    3.4326   -1.8114    2.8958 C   0  0  2  0  0  0
    4.4736   -2.7732    2.9423 O   0  0
    2.4843   -2.0044    1.6853 C   0  0  2  0  0  0
    3.1762   -2.0247    0.4458 O   0  0
   -1.5736   -0.9817   -0.5104 C   0  0
   -1.1535   -1.6941   -1.5889 C   0  0
    0.2375   -2.2190   -1.8921 C   0  0
   -3.0197   -0.4423   -0.3309 C   0  0  2  0  0  0
   -4.0062   -0.8135   -1.4913 C   0  0
   -4.4132   -2.2935   -1.5693 C   0  0
   -4.1729   -3.0925   -0.6608 O   0  0
   -5.0255   -2.5856   -2.7392 O   0  0
   -5.4324   -3.9153   -3.0516 C   0  0
   -4.2522   -4.7653   -3.5603 C   0  0
   -4.6667   -6.1902   -3.8883 C   0  0
   -4.6331   -7.1762   -2.8979 C   0  0
   -5.0126   -8.4848   -3.1961 C   0  0
   -5.4302   -8.8180   -4.4860 C   0  0
   -5.7986  -10.1119   -4.7572 O   0  0
   -5.4683   -7.8328   -5.4817 C   0  0
   -5.8770   -8.1335   -6.7564 O   0  0
   -5.0866   -6.5239   -5.1796 C   0  0
   -4.1113    4.9298   -1.8304 H   0  0
   -5.0848    4.4920   -0.4233 H   0  0
   -5.3593    3.6886   -1.9780 H   0  0
   -1.5371    2.6421    0.5522 H   0  0
   -1.1539   -0.8493    1.6192 H   0  0
    0.7999   -0.9818    2.6504 H   0  0
    2.1281    0.4936    3.7608 H   0  0
    3.8398    2.3372    3.7083 H   0  0
    3.7483    2.3542    1.9541 H   0  0
    1.5435    2.8541    2.1401 H   0  0
    4.4403   -0.2209    3.9572 H   0  0
    5.7143   -0.6622    2.2105 H   0  0
    2.8559   -1.9973    3.8038 H   0  0
    4.1312   -3.6085    2.6151 H   0  0
    1.9846   -2.9711    1.7654 H   0  0
    3.8106   -1.3034    0.4443 H   0  0
   -1.8550   -1.9325   -2.3718 H   0  0
    0.2763   -2.6023   -2.9117 H   0  0
    0.4960   -3.0366   -1.2187 H   0  0
    0.9873   -1.4317   -1.8107 H   0  0
   -3.4216   -0.8643    0.5927 H   0  0
   -4.9457   -0.2774   -1.3756 H   0  0
   -3.5951   -0.4955   -2.4499 H   0  0
   -5.9051   -4.3848   -2.1866 H   0  0
   -6.1970   -3.8582   -3.8268 H   0  0
   -3.8098   -4.3027   -4.4442 H   0  0
   -3.4523   -4.7935   -2.8185 H   0  0
   -4.3132   -6.9296   -1.8957 H   0  0
   -4.9806   -9.2379   -2.4220 H   0  0
   -5.7318  -10.6872   -3.9918 H   0  0
   -6.1143   -9.0583   -6.8575 H   0  0
   -5.1174   -5.7658   -5.9494 H   0  0
  1  2  1  0
  1 39  1  0
  1 40  1  0
  1 41  1  0
  2  3  1  0
  3  4  2  0
  3  5  1  0
  5  6  2  0
  5 24  1  0
  6  7  1  0
  6 42  1  0
  7  8  1  0
  8  9  1  0
  8 21  1  0
  8 43  1  0
  9 10  1  0
 10 11  1  0
 10 19  1  0
 10 44  1  0
 11 12  1  0
 12 13  1  0
 12 15  1  0
 12 45  1  0
 13 14  1  0
 13 46  1  0
 13 47  1  0
 14 48  1  0
 15 16  1  0
 15 17  1  0
 15 49  1  0
 16 50  1  0
 17 18  1  0
 17 19  1  0
 17 51  1  0
 18 52  1  0
 19 20  1  0
 19 53  1  0
 20 54  1  0
 21 22  2  0
 21 24  1  0
 22 23  1  0
 22 55  1  0
 23 56  1  0
 23 57  1  0
 23 58  1  0
 24 25  1  0
 24 59  1  0
 25 26  1  0
 25 60  1  0
 25 61  1  0
 26 27  2  0
 26 28  1  0
 28 29  1  0
 29 30  1  0
 29 62  1  0
 29 63  1  0
 30 31  1  0
 30 64  1  0
 30 65  1  0
 31 32  2  0
 31 38  1  0
 32 33  1  0
 32 66  1  0
 33 34  2  0
 33 67  1  0
 34 35  1  0
 34 36  1  0
 35 68  1  0
 36 37  1  0
 36 38  2  0
 37 69  1  0
 38 70  1  0
M  END
> <Mol2_MolInfo_Name>
9926

> <Mol2_MolInfo_Type>
SMALL

> <Mol2_MolInfo_Charge>
USER_CHARGES

> <Mol2_Substructures>
     1 UNK         1 GROUP             0       ****    0 ROOT    

> <Name>
9926

$$$$
9926
  SciTegic06232017503D

 70 72  0  0  0  0            999 V2000
   -5.5145    2.7549    2.1441 C   0  0
   -4.2782    2.3155    1.5994 O   0  0
   -3.9020    1.0114    1.6795 C   0  0
   -4.5892    0.1381    2.2169 O   0  0
   -2.5804    0.7218    1.0793 C   0  0
   -1.9043    1.6513    0.3698 C   0  0
   -0.6901    1.5013   -0.2236 O   0  0
   -0.0540    0.2363   -0.1071 C   0  0  1  0  0  0
    1.3281    0.4328   -0.1383 O   0  0
    1.8665    0.6945   -1.4021 C   0  0  2  0  0  0
    1.9762   -0.4959   -2.1451 O   0  0
    2.4123   -0.2781   -3.4952 C   0  0  2  0  0  0
    2.2687   -1.5915   -4.2926 C   0  0
    0.9078   -1.9544   -4.4116 O   0  0
    3.8554    0.2960   -3.4925 C   0  0  2  0  0  0
    4.8230   -0.6809   -3.1382 O   0  0
    3.9187    1.5467   -2.5815 C   0  0  2  0  0  0
    5.2202    2.1020   -2.4892 O   0  0
    3.2713    1.2898   -1.1961 C   0  0  2  0  0  0
    4.0830    0.4925   -0.3469 O   0  0
   -0.4581   -0.5392    1.1697 C   0  0
    0.3683   -1.0735    2.1012 C   0  0
    1.8847   -1.1065    2.1184 C   0  0
   -1.9840   -0.6657    1.3256 C   0  0  2  0  0  0
   -2.5892   -1.6983    0.3335 C   0  0
   -2.1554   -3.1551    0.5466 C   0  0
   -1.7692   -3.5733    1.6403 O   0  0
   -2.2431   -3.8778   -0.5917 O   0  0
   -1.9146   -5.2659   -0.6229 C   0  0
   -3.0302   -6.1607   -0.0420 C   0  0
   -4.3710   -5.9779   -0.7396 C   0  0
   -4.6463   -6.6660   -1.9246 C   0  0
   -5.8693   -6.4895   -2.5715 C   0  0
   -6.8265   -5.6236   -2.0396 C   0  0
   -8.0215   -5.4632   -2.6940 O   0  0
   -6.5567   -4.9321   -0.8511 C   0  0
   -7.4801   -4.0751   -0.3070 O   0  0
   -5.3314   -5.1124   -0.2057 C   0  0
   -5.6290    3.8269    1.9827 H   0  0
   -5.5578    2.5670    3.2178 H   0  0
   -6.3549    2.2475    1.6686 H   0  0
   -2.2672    2.6527    0.1863 H   0  0
   -0.3598   -0.3222   -0.9953 H   0  0
    1.2127    1.3738   -1.9577 H   0  0
    1.7576    0.4590   -3.9677 H   0  0
    2.6750   -1.4713   -5.2973 H   0  0
    2.8169   -2.4051   -3.8161 H   0  0
    0.5795   -2.1876   -3.5397 H   0  0
    4.1159    0.5919   -4.5101 H   0  0
    5.6964   -0.3257   -3.3187 H   0  0
    3.3321    2.3281   -3.0681 H   0  0
    5.7969    1.4595   -2.0700 H   0  0
    3.1446    2.2414   -0.6773 H   0  0
    4.9830    0.8222   -0.3866 H   0  0
   -0.0821   -1.5705    2.9488 H   0  0
    2.2297   -1.8341    2.8532 H   0  0
    2.2870   -0.1320    2.3962 H   0  0
    2.2922   -1.4045    1.1523 H   0  0
   -2.2122   -0.9769    2.3486 H   0  0
   -3.6762   -1.6829    0.4151 H   0  0
   -2.3629   -1.4080   -0.6930 H   0  0
   -1.7450   -5.5388   -1.6649 H   0  0
   -0.9714   -5.4454   -0.1039 H   0  0
   -2.7331   -7.2076   -0.1156 H   0  0
   -3.1471   -5.9747    1.0267 H   0  0
   -3.9119   -7.3356   -2.3483 H   0  0
   -6.0710   -7.0255   -3.4876 H   0  0
   -8.6036   -4.8423   -2.2493 H   0  0
   -7.1803   -3.6711    0.5106 H   0  0
   -5.1218   -4.5751    0.7084 H   0  0
  1  2  1  0
  1 39  1  0
  1 40  1  0
  1 41  1  0
  2  3  1  0
  3  4  2  0
  3  5  1  0
  5  6  2  0
  5 24  1  0
  6  7  1  0
  6 42  1  0
  7  8  1  0
  8  9  1  0
  8 21  1  0
  8 43  1  0
  9 10  1  0
 10 11  1  0
 10 19  1  0
 10 44  1  0
 11 12  1  0
 12 13  1  0
 12 15  1  0
 12 45  1  0
 13 14  1  0
 13 46  1  0
 13 47  1  0
 14 48  1  0
 15 16  1  0
 15 17  1  0
 15 49  1  0
 16 50  1  0
 17 18  1  0
 17 19  1  0
 17 51  1  0
 18 52  1  0
 19 20  1  0
 19 53  1  0
 20 54  1  0
 21 22  2  0
 21 24  1  0
 22 23  1  0
 22 55  1  0
 23 56  1  0
 23 57  1  0
 23 58  1  0
 24 25  1  0
 24 59  1  0
 25 26  1  0
 25 60  1  0
 25 61  1  0
 26 27  2  0
 26 28  1  0
 28 29  1  0
 29 30  1  0
 29 62  1  0
 29 63  1  0
 30 31  1  0
 30 64  1  0
 30 65  1  0
 31 32  2  0
 31 38  1  0
 32 33  1  0
 32 66  1  0
 33 34  2  0
 33 67  1  0
 34 35  1  0
 34 36  1  0
 35 68  1  0
 36 37  1  0
 36 38  2  0
 37 69  1  0
 38 70  1  0
M  END
> <Mol2_MolInfo_Name>
9926

> <Mol2_MolInfo_Type>
SMALL

> <Mol2_MolInfo_Charge>
USER_CHARGES

> <Mol2_Substructures>
     1 UNK         1 GROUP             0       ****    0 ROOT    

> <Name>
9926

$$$$
9926
  SciTegic06232017503D

 70 72  0  0  0  0            999 V2000
   -5.7171    2.2568   -0.0983 C   0  0
   -4.3891    1.7784    0.0612 O   0  0
   -4.1199    0.4465    0.0303 C   0  0
   -4.9771   -0.4231   -0.1465 O   0  0
   -2.6866    0.1206    0.1766 C   0  0
   -1.8834    0.9302    0.8854 C   0  0
   -0.5720    0.7758    1.1580 O   0  0
    0.0949   -0.3699    0.6694 C   0  0  2  0  0  0
    1.3655   -0.0134    0.1864 O   0  0
    1.4174    0.7381   -0.9970 C   0  0  1  0  0  0
    0.9464    2.0428   -0.7547 O   0  0
    0.9453    2.8889   -1.9105 C   0  0  1  0  0  0
    0.1525    4.1700   -1.5780 C   0  0
    0.0061    4.9960   -2.7158 O   0  0
    2.4078    3.1224   -2.3687 C   0  0  1  0  0  0
    3.1335    3.9248   -1.4522 O   0  0
    3.1134    1.7694   -2.6008 C   0  0  2  0  0  0
    2.7061    1.1984   -3.8340 O   0  0
    2.9066    0.8093   -1.3978 C   0  0  2  0  0  0
    3.4555   -0.4740   -1.6426 O   0  0
   -0.6594   -1.3491   -0.2695 C   0  0
   -0.0647   -2.4591   -0.7692 C   0  0
    1.3574   -2.9434   -0.5496 C   0  0
   -2.1660   -1.1273   -0.5381 C   0  0  2  0  0  0
   -2.5069   -1.1622   -2.0667 C   0  0
   -1.8414   -0.0824   -2.9310 C   0  0
   -1.8480    1.1056   -2.6034 O   0  0
   -1.2474   -0.6004   -4.0307 O   0  0
   -0.4712    0.2116   -4.9062 C   0  0
   -1.3237    1.0997   -5.8315 C   0  0
   -0.4627    2.0636   -6.6308 C   0  0
    0.0208    3.2293   -6.0288 C   0  0
    0.8228    4.1126   -6.7502 C   0  0
    1.1470    3.8386   -8.0801 C   0  0
    1.9369    4.7215   -8.7719 O   0  0
    0.6653    2.6715   -8.6890 C   0  0
    0.9703    2.3784   -9.9946 O   0  0
   -0.1365    1.7884   -7.9622 C   0  0
   -5.7297    3.3445   -0.0281 H   0  0
   -6.3732    1.8584    0.6770 H   0  0
   -6.1193    1.9743   -1.0722 H   0  0
   -2.2271    1.8381    1.3612 H   0  0
    0.2790   -0.8835    1.6140 H   0  0
    0.7944    0.2973   -1.7772 H   0  0
    0.4064    2.3842   -2.7128 H   0  0
   -0.8443    3.9087   -1.2205 H   0  0
    0.6334    4.7375   -0.7808 H   0  0
   -0.4938    5.7764   -2.4652 H   0  0
    2.4093    3.6950   -3.2982 H   0  0
    3.1694    3.4678   -0.6089 H   0  0
    4.1830    1.9433   -2.7331 H   0  0
    1.7674    1.0049   -3.7861 H   0  0
    3.4514    1.2092   -0.5406 H   0  0
    3.4307   -0.9758   -0.8244 H   0  0
   -0.6488   -3.1243   -1.3879 H   0  0
    1.3449   -3.9942   -0.2602 H   0  0
    1.8832   -2.3986    0.2322 H   0  0
    1.9263   -2.8534   -1.4747 H   0  0
   -2.6784   -1.9764   -0.0807 H   0  0
   -2.2508   -2.1404   -2.4736 H   0  0
   -3.5827   -1.0782   -2.2161 H   0  0
    0.2094    0.8252   -4.3175 H   0  0
    0.1564   -0.4436   -5.5109 H   0  0
   -1.9246    0.4822   -6.5008 H   0  0
   -2.0395    1.6864   -5.2542 H   0  0
   -0.2213    3.4495   -4.9993 H   0  0
    1.1919    5.0090   -6.2725 H   0  0
    2.1016    4.4367   -9.6737 H   0  0
    0.5813    1.5535  -10.2942 H   0  0
   -0.5038    0.8863   -8.4307 H   0  0
  1  2  1  0
  1 39  1  0
  1 40  1  0
  1 41  1  0
  2  3  1  0
  3  4  2  0
  3  5  1  0
  5  6  2  0
  5 24  1  0
  6  7  1  0
  6 42  1  0
  7  8  1  0
  8  9  1  0
  8 21  1  0
  8 43  1  0
  9 10  1  0
 10 11  1  0
 10 19  1  0
 10 44  1  0
 11 12  1  0
 12 13  1  0
 12 15  1  0
 12 45  1  0
 13 14  1  0
 13 46  1  0
 13 47  1  0
 14 48  1  0
 15 16  1  0
 15 17  1  0
 15 49  1  0
 16 50  1  0
 17 18  1  0
 17 19  1  0
 17 51  1  0
 18 52  1  0
 19 20  1  0
 19 53  1  0
 20 54  1  0
 21 22  2  0
 21 24  1  0
 22 23  1  0
 22 55  1  0
 23 56  1  0
 23 57  1  0
 23 58  1  0
 24 25  1  0
 24 59  1  0
 25 26  1  0
 25 60  1  0
 25 61  1  0
 26 27  2  0
 26 28  1  0
 28 29  1  0
 29 30  1  0
 29 62  1  0
 29 63  1  0
 30 31  1  0
 30 64  1  0
 30 65  1  0
 31 32  2  0
 31 38  1  0
 32 33  1  0
 32 66  1  0
 33 34  2  0
 33 67  1  0
 34 35  1  0
 34 36  1  0
 35 68  1  0
 36 37  1  0
 36 38  2  0
 37 69  1  0
 38 70  1  0
M  END
> <Mol2_MolInfo_Name>
9926

> <Mol2_MolInfo_Type>
SMALL

> <Mol2_MolInfo_Charge>
USER_CHARGES

> <Mol2_Substructures>
     1 UNK         1 GROUP             0       ****    0 ROOT    

> <Name>
9926

$$$$
9926
  SciTegic06232017503D

 70 72  0  0  0  0            999 V2000
   -6.3578    2.1643    0.9517 C   0  0
   -5.0059    1.8737    0.6260 O   0  0
   -4.4492    0.6772    0.9527 C   0  0
   -5.0622   -0.2185    1.5408 O   0  0
   -3.0305    0.5361    0.5530 C   0  0
   -2.4048    1.4751   -0.1910 C   0  0
   -1.1135    1.4496   -0.6182 O   0  0
   -0.3332    0.3120   -0.2751 C   0  0  1  0  0  0
    1.0148    0.6759   -0.2049 O   0  0
    1.6030    1.0657   -1.4138 C   0  0  1  0  0  0
    1.2943    2.4140   -1.6689 O   0  0
    1.8079    2.8969   -2.9161 C   0  0  1  0  0  0
    1.2072    4.2874   -3.2096 C   0  0
   -0.1845    4.1912   -3.4401 O   0  0
    3.3587    2.8876   -2.8612 C   0  0  1  0  0  0
    3.8731    3.8625   -1.9684 O   0  0
    3.8689    1.4795   -2.4832 C   0  0  2  0  0  0
    3.7857    0.6041   -3.5978 O   0  0
    3.1274    0.9257   -1.2365 C   0  0  2  0  0  0
    3.5084   -0.4071   -0.9389 O   0  0
   -0.7821   -0.3512    1.0484 C   0  0
   -0.0200   -0.6019    2.1400 C   0  0
    1.4588   -0.3326    2.3409 C   0  0
   -2.2803   -0.7039    1.0472 C   0  0  2  0  0  0
   -2.6002   -1.9257    0.1405 C   0  0
   -2.0339   -3.2740    0.6059 C   0  0
   -1.5937   -3.4512    1.7439 O   0  0
   -2.0920   -4.2029   -0.3736 O   0  0
   -1.6741   -5.5496   -0.1543 C   0  0
   -2.7121   -6.3802    0.6309 C   0  0
   -4.0855   -6.4041   -0.0260 C   0  0
   -4.3772   -7.3493   -1.0136 C   0  0
   -5.6322   -7.3643   -1.6224 C   0  0
   -6.6045   -6.4340   -1.2505 C   0  0
   -7.8315   -6.4659   -1.8635 O   0  0
   -6.3171   -5.4832   -0.2622 C   0  0
   -7.2525   -4.5540    0.1188 O   0  0
   -5.0608   -5.4735    0.3472 C   0  0
   -6.6140    3.1656    0.6064 H   0  0
   -6.5171    2.1257    2.0302 H   0  0
   -7.0366    1.4562    0.4746 H   0  0
   -2.8758    2.3829   -0.5406 H   0  0
   -0.4600   -0.3861   -1.1051 H   0  0
    1.2278    0.4727   -2.2528 H   0  0
    1.4886    2.2294   -3.7207 H   0  0
    1.3876    4.9777   -2.3847 H   0  0
    1.6669    4.7221   -4.0979 H   0  0
   -0.5326    5.0731   -3.5909 H   0  0
    3.7560    3.1690   -3.8381 H   0  0
    3.7127    4.7339   -2.3376 H   0  0
    4.9375    1.5333   -2.2657 H   0  0
    2.8616    0.4955   -3.8336 H   0  0
    3.4058    1.5222   -0.3654 H   0  0
    4.4394   -0.5119   -1.1485 H   0  0
   -0.4961   -1.0604    2.9950 H   0  0
    1.7800   -0.7203    3.3077 H   0  0
    1.6636    0.7383    2.3260 H   0  0
    2.0542   -0.8260    1.5722 H   0  0
   -2.5935   -0.9268    2.0707 H   0  0
   -3.6815   -2.0503    0.0788 H   0  0
   -2.2617   -1.7368   -0.8784 H   0  0
   -1.5179   -6.0065   -1.1318 H   0  0
   -0.7065   -5.5707    0.3503 H   0  0
   -2.3521   -7.4038    0.7418 H   0  0
   -2.8053   -6.0027    1.6503 H   0  0
   -3.6322   -8.0719   -1.3135 H   0  0
   -5.8465   -8.0993   -2.3850 H   0  0
   -8.4264   -5.7904   -1.5288 H   0  0
   -6.9315   -3.9579    0.7997 H   0  0
   -4.8388   -4.7377    1.1071 H   0  0
  1  2  1  0
  1 39  1  0
  1 40  1  0
  1 41  1  0
  2  3  1  0
  3  4  2  0
  3  5  1  0
  5  6  2  0
  5 24  1  0
  6  7  1  0
  6 42  1  0
  7  8  1  0
  8  9  1  0
  8 21  1  0
  8 43  1  0
  9 10  1  0
 10 11  1  0
 10 19  1  0
 10 44  1  0
 11 12  1  0
 12 13  1  0
 12 15  1  0
 12 45  1  0
 13 14  1  0
 13 46  1  0
 13 47  1  0
 14 48  1  0
 15 16  1  0
 15 17  1  0
 15 49  1  0
 16 50  1  0
 17 18  1  0
 17 19  1  0
 17 51  1  0
 18 52  1  0
 19 20  1  0
 19 53  1  0
 20 54  1  0
 21 22  2  0
 21 24  1  0
 22 23  1  0
 22 55  1  0
 23 56  1  0
 23 57  1  0
 23 58  1  0
 24 25  1  0
 24 59  1  0
 25 26  1  0
 25 60  1  0
 25 61  1  0
 26 27  2  0
 26 28  1  0
 28 29  1  0
 29 30  1  0
 29 62  1  0
 29 63  1  0
 30 31  1  0
 30 64  1  0
 30 65  1  0
 31 32  2  0
 31 38  1  0
 32 33  1  0
 32 66  1  0
 33 34  2  0
 33 67  1  0
 34 35  1  0
 34 36  1  0
 35 68  1  0
 36 37  1  0
 36 38  2  0
 37 69  1  0
 38 70  1  0
M  END
> <Mol2_MolInfo_Name>
9926

> <Mol2_MolInfo_Type>
SMALL

> <Mol2_MolInfo_Charge>
USER_CHARGES

> <Mol2_Substructures>
     1 UNK         1 GROUP             0       ****    0 ROOT    

> <Name>
9926

$$$$
9926
  SciTegic06232017503D

 70 72  0  0  0  0            999 V2000
   -4.7916    2.3632   -2.0877 C   0  0
   -3.6028    1.8086   -1.5436 O   0  0
   -3.4477    0.4639   -1.4377 C   0  0
   -4.2879   -0.3599   -1.8066 O   0  0
   -2.1438    0.0625   -0.8803 C   0  0
   -1.5998    0.7926    0.1141 C   0  0
   -0.4611    0.5156    0.7967 O   0  0
    0.1614   -0.7253    0.5126 C   0  0  2  0  0  0
    1.4902   -0.6769    0.9530 O   0  0
    1.6692   -0.7150    2.3477 C   0  0  2  0  0  0
    1.2541    0.4792    2.9738 O   0  0
    2.0118    1.6448    2.6164 C   0  0  1  0  0  0
    1.3144    2.9161    3.1520 C   0  0
    1.2033    2.9417    4.5616 O   0  0
    3.5068    1.4834    2.9982 C   0  0  1  0  0  0
    3.7220    1.4710    4.3993 O   0  0
    4.0697    0.1999    2.3560 C   0  0  2  0  0  0
    4.2982    0.3851    0.9695 O   0  0
    3.1526   -1.0122    2.6612 C   0  0  2  0  0  0
    3.6042   -2.2139    2.0621 O   0  0
    0.0672   -1.1204   -0.9814 C   0  0
    1.1168   -1.4284   -1.7879 C   0  0
    2.5957   -1.4487   -1.4576 C   0  0
   -1.4111   -1.1638   -1.4656 C   0  0  2  0  0  0
   -1.5923   -1.3634   -3.0138 C   0  0
   -1.1528   -0.2158   -3.9432 C   0  0
   -0.6327    0.8193   -3.5201 O   0  0
   -1.4107   -0.4976   -5.2356 O   0  0
   -1.0868    0.4339   -6.2594 C   0  0
   -1.4612   -0.1587   -7.6254 C   0  0
   -1.1305    0.7808   -8.7742 C   0  0
   -2.0856    1.6904   -9.2377 C   0  0
   -1.7817    2.5521  -10.2916 C   0  0
   -0.5206    2.5132  -10.8892 C   0  0
   -0.2432    3.3700  -11.9242 O   0  0
    0.4414    1.6051  -10.4274 C   0  0
    1.6893    1.5475  -10.9958 O   0  0
    0.1329    0.7429   -9.3728 C   0  0
   -4.7281    3.4512   -2.0819 H   0  0
   -5.6643    2.0706   -1.5022 H   0  0
   -4.9392    2.0366   -3.1181 H   0  0
   -2.0271    1.7134    0.4867 H   0  0
   -0.3826   -1.4620    1.1092 H   0  0
    1.0247   -1.4774    2.7899 H   0  0
    1.9659    1.7422    1.5294 H   0  0
    1.8549    3.8069    2.8303 H   0  0
    0.3119    2.9940    2.7296 H   0  0
    0.7254    3.7345    4.8163 H   0  0
    4.0648    2.3490    2.6367 H   0  0
    3.4266    2.3107    4.7600 H   0  0
    5.0646    0.0128    2.7647 H   0  0
    4.3629   -0.4804    0.5583 H   0  0
    3.2000   -1.2014    3.7348 H   0  0
    3.1182   -2.9476    2.4457 H   0  0
    0.9325   -1.7084   -2.8122 H   0  0
    3.1636   -1.8113   -2.3145 H   0  0
    2.8058   -2.1137   -0.6205 H   0  0
    2.9482   -0.4434   -1.2293 H   0  0
   -1.8605   -2.0367   -0.9894 H   0  0
   -1.0703   -2.2686   -3.3237 H   0  0
   -2.6409   -1.5654   -3.2292 H   0  0
   -1.6268    1.3681   -6.0949 H   0  0
   -0.0195    0.6614   -6.2301 H   0  0
   -0.9440   -1.1075   -7.7793 H   0  0
   -2.5251   -0.4006   -7.6525 H   0  0
   -3.0645    1.7321   -8.7826 H   0  0
   -2.5280    3.2504  -10.6422 H   0  0
    0.6451    3.2537  -12.2695 H   0  0
    2.2563    0.8895  -10.5872 H   0  0
    0.8753    0.0430   -9.0166 H   0  0
  1  2  1  0
  1 39  1  0
  1 40  1  0
  1 41  1  0
  2  3  1  0
  3  4  2  0
  3  5  1  0
  5  6  2  0
  5 24  1  0
  6  7  1  0
  6 42  1  0
  7  8  1  0
  8  9  1  0
  8 21  1  0
  8 43  1  0
  9 10  1  0
 10 11  1  0
 10 19  1  0
 10 44  1  0
 11 12  1  0
 12 13  1  0
 12 15  1  0
 12 45  1  0
 13 14  1  0
 13 46  1  0
 13 47  1  0
 14 48  1  0
 15 16  1  0
 15 17  1  0
 15 49  1  0
 16 50  1  0
 17 18  1  0
 17 19  1  0
 17 51  1  0
 18 52  1  0
 19 20  1  0
 19 53  1  0
 20 54  1  0
 21 22  2  0
 21 24  1  0
 22 23  1  0
 22 55  1  0
 23 56  1  0
 23 57  1  0
 23 58  1  0
 24 25  1  0
 24 59  1  0
 25 26  1  0
 25 60  1  0
 25 61  1  0
 26 27  2  0
 26 28  1  0
 28 29  1  0
 29 30  1  0
 29 62  1  0
 29 63  1  0
 30 31  1  0
 30 64  1  0
 30 65  1  0
 31 32  2  0
 31 38  1  0
 32 33  1  0
 32 66  1  0
 33 34  2  0
 33 67  1  0
 34 35  1  0
 34 36  1  0
 35 68  1  0
 36 37  1  0
 36 38  2  0
 37 69  1  0
 38 70  1  0
M  END
> <Mol2_MolInfo_Name>
9926

> <Mol2_MolInfo_Type>
SMALL

> <Mol2_MolInfo_Charge>
USER_CHARGES

> <Mol2_Substructures>
     1 UNK         1 GROUP             0       ****    0 ROOT    

> <Name>
9926

$$$$
9926
  SciTegic06232017503D

 70 72  0  0  0  0            999 V2000
   -5.6747    0.4367    3.1271 C   0  0
   -4.4324    0.1969    2.4813 O   0  0
   -3.6911    1.2181    1.9861 C   0  0
   -4.0288    2.4036    2.0657 O   0  0
   -2.4356    0.7799    1.3372 C   0  0
   -1.6084    1.7017    0.7980 C   0  0
   -0.4326    1.4652    0.1539 O   0  0
   -0.0648    0.1058   -0.0322 C   0  0  1  0  0  0
    1.3208    0.0127   -0.2035 O   0  0
    1.7978    0.5018   -1.4319 C   0  0  2  0  0  0
    1.5787   -0.4174   -2.4788 O   0  0
    2.3150   -1.6439   -2.3723 C   0  0  1  0  0  0
    1.8076   -2.6629   -3.4181 C   0  0
    1.9733   -2.2238   -4.7520 O   0  0
    3.8438   -1.3839   -2.3769 C   0  0  1  0  0  0
    4.3203   -0.9062   -3.6234 O   0  0
    4.2066   -0.3961   -1.2512 C   0  0  2  0  0  0
    4.2077   -1.0355    0.0134 O   0  0
    3.2954    0.8569   -1.2978 C   0  0  2  0  0  0
    3.5352    1.7644   -0.2372 O   0  0
   -0.5557   -0.8082    1.1141 C   0  0
    0.1876   -1.6098    1.9128 C   0  0
    1.6886   -1.8079    1.9174 C   0  0
   -2.0757   -0.7128    1.3117 C   0  0  2  0  0  0
   -2.8309   -1.4674    0.1781 C   0  0
   -3.8017   -2.5337    0.6903 C   0  0
   -5.0214   -2.3929    0.5868 O   0  0
   -3.1624   -3.5838    1.2449 O   0  0
   -3.8953   -4.6634    1.8065 C   0  0
   -2.9146   -5.7172    2.3399 C   0  0
   -3.6263   -6.8869    3.0005 C   0  0
   -4.0276   -7.9887    2.2391 C   0  0
   -4.6832   -9.0602    2.8454 C   0  0
   -4.9435   -9.0394    4.2167 C   0  0
   -5.5898  -10.1041    4.7920 O   0  0
   -4.5446   -7.9373    4.9847 C   0  0
   -4.7887   -7.8904    6.3345 O   0  0
   -3.8881   -6.8664    4.3741 C   0  0
   -6.1186   -0.5098    3.4357 H   0  0
   -6.3749    0.9372    2.4568 H   0  0
   -5.5410    1.0560    4.0151 H   0  0
   -1.7910    2.7667    0.8359 H   0  0
   -0.5446   -0.1911   -0.9685 H   0  0
    1.2281    1.3818   -1.7398 H   0  0
    2.0642   -2.0892   -1.4074 H   0  0
    2.3261   -3.6148   -3.2998 H   0  0
    0.7486   -2.8664   -3.2554 H   0  0
    1.5920   -2.8798   -5.3403 H   0  0
    4.3685   -2.3279   -2.2196 H   0  0
    4.1321   -1.5668   -4.2948 H   0  0
    5.2424   -0.0754   -1.3786 H   0  0
    5.0915   -0.9756    0.3842 H   0  0
    3.5442    1.4149   -2.2021 H   0  0
    3.5341    1.2701    0.5860 H   0  0
   -0.3260   -2.1893    2.6668 H   0  0
    1.9890   -2.3570    2.8099 H   0  0
    2.2143   -0.8534    1.9294 H   0  0
    1.9991   -2.3880    1.0487 H   0  0
   -2.3063   -1.1422    2.2909 H   0  0
   -3.3855   -0.7644   -0.4451 H   0  0
   -2.1300   -1.9624   -0.4952 H   0  0
   -4.5287   -4.2964    2.6161 H   0  0
   -4.5485   -5.1064    1.0524 H   0  0
   -2.2844   -6.0892    1.5304 H   0  0
   -2.2281   -5.2638    3.0571 H   0  0
   -3.8341   -8.0166    1.1765 H   0  0
   -4.9887   -9.9066    2.2471 H   0  0
   -5.7309   -9.9832    5.7341 H   0  0
   -4.4618   -7.0869    6.7455 H   0  0
   -3.5815   -6.0162    4.9667 H   0  0
  1  2  1  0
  1 39  1  0
  1 40  1  0
  1 41  1  0
  2  3  1  0
  3  4  2  0
  3  5  1  0
  5  6  2  0
  5 24  1  0
  6  7  1  0
  6 42  1  0
  7  8  1  0
  8  9  1  0
  8 21  1  0
  8 43  1  0
  9 10  1  0
 10 11  1  0
 10 19  1  0
 10 44  1  0
 11 12  1  0
 12 13  1  0
 12 15  1  0
 12 45  1  0
 13 14  1  0
 13 46  1  0
 13 47  1  0
 14 48  1  0
 15 16  1  0
 15 17  1  0
 15 49  1  0
 16 50  1  0
 17 18  1  0
 17 19  1  0
 17 51  1  0
 18 52  1  0
 19 20  1  0
 19 53  1  0
 20 54  1  0
 21 22  2  0
 21 24  1  0
 22 23  1  0
 22 55  1  0
 23 56  1  0
 23 57  1  0
 23 58  1  0
 24 25  1  0
 24 59  1  0
 25 26  1  0
 25 60  1  0
 25 61  1  0
 26 27  2  0
 26 28  1  0
 28 29  1  0
 29 30  1  0
 29 62  1  0
 29 63  1  0
 30 31  1  0
 30 64  1  0
 30 65  1  0
 31 32  2  0
 31 38  1  0
 32 33  1  0
 32 66  1  0
 33 34  2  0
 33 67  1  0
 34 35  1  0
 34 36  1  0
 35 68  1  0
 36 37  1  0
 36 38  2  0
 37 69  1  0
 38 70  1  0
M  END
> <Mol2_MolInfo_Name>
9926

> <Mol2_MolInfo_Type>
SMALL

> <Mol2_MolInfo_Charge>
USER_CHARGES

> <Mol2_Substructures>
     1 UNK         1 GROUP             0       ****    0 ROOT    

> <Name>
9926

$$$$
9926
  SciTegic06232017503D

 70 72  0  0  0  0            999 V2000
   -4.5314    3.1201   -2.0288 C   0  0
   -3.4989    2.3211   -1.4701 O   0  0
   -3.7219    1.0200   -1.1529 C   0  0
   -4.7919    0.4341   -1.3355 O   0  0
   -2.5313    0.3375   -0.6198 C   0  0
   -1.7618    0.9819    0.2696 C   0  0
   -0.6827    0.5121    0.9253 O   0  0
   -0.2329   -0.7997    0.6483 C   0  0  2  0  0  0
    1.1731   -0.7849    0.6468 O   0  0
    1.7925   -0.0687   -0.3930 C   0  0  1  0  0  0
    1.6339    1.3241   -0.2534 O   0  0
    2.2395    1.9137    0.9032 C   0  0  2  0  0  0
    1.8515    3.4087    0.9195 C   0  0
    2.3984    4.1076   -0.1819 O   0  0
    3.7647    1.6457    0.9425 C   0  0  1  0  0  0
    4.3513    2.1678    2.1224 O   0  0
    4.0256    0.1325    0.8073 C   0  0  2  0  0  0
    5.4088   -0.1789    0.7789 O   0  0
    3.2841   -0.4464   -0.4204 C   0  0  2  0  0  0
    3.8710   -0.0519   -1.6495 O   0  0
   -0.8323   -1.5497   -0.5790 C   0  0
   -0.2493   -2.6543   -1.1133 C   0  0
    1.0126   -3.3757   -0.6737 C   0  0
   -2.2230   -1.0875   -1.0903 C   0  0  2  0  0  0
   -2.4529   -1.3177   -2.6295 C   0  0
   -1.6098   -0.5262   -3.6490 C   0  0
   -1.6942   -0.7940   -4.8487 O   0  0
   -0.8361    0.4476   -3.1197 O   0  0
   -0.1367    1.3515   -3.9681 C   0  0
    0.8087    2.2218   -3.1316 C   0  0
    1.4421    3.3480   -3.9295 C   0  0
    0.8416    4.6096   -3.9668 C   0  0
    1.4327    5.6468   -4.6880 C   0  0
    2.6277    5.4312   -5.3776 C   0  0
    3.1909    6.4688   -6.0769 O   0  0
    3.2324    4.1671   -5.3452 C   0  0
    4.4065    3.9251   -6.0131 O   0  0
    2.6375    3.1316   -4.6216 C   0  0
   -4.1556    4.1235   -2.2282 H   0  0
   -5.3762    3.2028   -1.3434 H   0  0
   -4.8873    2.6982   -2.9697 H   0  0
   -1.9648    1.9883    0.6097 H   0  0
   -0.5301   -1.3177    1.5609 H   0  0
    1.3124   -0.2942   -1.3462 H   0  0
    1.7844    1.4585    1.7856 H   0  0
    0.7663    3.5162    0.9001 H   0  0
    2.1970    3.8838    1.8380 H   0  0
    2.0017    3.7649   -0.9867 H   0  0
    4.2430    2.1622    0.1086 H   0  0
    4.3509    3.1263    2.0631 H   0  0
    3.6376   -0.3772    1.6914 H   0  0
    5.8585    0.3934    1.4056 H   0  0
    3.3525   -1.5348   -0.4036 H   0  0
    4.8255   -0.0690   -1.5449 H   0  0
   -0.7230   -3.1538   -1.9425 H   0  0
    0.8482   -4.4522   -0.7177 H   0  0
    1.3112   -3.1430    0.3468 H   0  0
    1.8348   -3.1348   -1.3469 H   0  0
   -2.9456   -1.7213   -0.5737 H   0  0
   -2.3572   -2.3751   -2.8702 H   0  0
   -3.4930   -1.0964   -2.8653 H   0  0
    0.4313    0.8121   -4.7283 H   0  0
   -0.8627    1.9803   -4.4863 H   0  0
    0.2809    2.6429   -2.2740 H   0  0
    1.6048    1.6027   -2.7216 H   0  0
   -0.0817    4.7899   -3.4352 H   0  0
    0.9601    6.6181   -4.7075 H   0  0
    2.6826    7.2805   -6.0159 H   0  0
    4.7147    3.0218   -5.9120 H   0  0
    3.1052    2.1575   -4.5937 H   0  0
  1  2  1  0
  1 39  1  0
  1 40  1  0
  1 41  1  0
  2  3  1  0
  3  4  2  0
  3  5  1  0
  5  6  2  0
  5 24  1  0
  6  7  1  0
  6 42  1  0
  7  8  1  0
  8  9  1  0
  8 21  1  0
  8 43  1  0
  9 10  1  0
 10 11  1  0
 10 19  1  0
 10 44  1  0
 11 12  1  0
 12 13  1  0
 12 15  1  0
 12 45  1  0
 13 14  1  0
 13 46  1  0
 13 47  1  0
 14 48  1  0
 15 16  1  0
 15 17  1  0
 15 49  1  0
 16 50  1  0
 17 18  1  0
 17 19  1  0
 17 51  1  0
 18 52  1  0
 19 20  1  0
 19 53  1  0
 20 54  1  0
 21 22  2  0
 21 24  1  0
 22 23  1  0
 22 55  1  0
 23 56  1  0
 23 57  1  0
 23 58  1  0
 24 25  1  0
 24 59  1  0
 25 26  1  0
 25 60  1  0
 25 61  1  0
 26 27  2  0
 26 28  1  0
 28 29  1  0
 29 30  1  0
 29 62  1  0
 29 63  1  0
 30 31  1  0
 30 64  1  0
 30 65  1  0
 31 32  2  0
 31 38  1  0
 32 33  1  0
 32 66  1  0
 33 34  2  0
 33 67  1  0
 34 35  1  0
 34 36  1  0
 35 68  1  0
 36 37  1  0
 36 38  2  0
 37 69  1  0
 38 70  1  0
M  END
> <Mol2_MolInfo_Name>
9926

> <Mol2_MolInfo_Type>
SMALL

> <Mol2_MolInfo_Charge>
USER_CHARGES

> <Mol2_Substructures>
     1 UNK         1 GROUP             0       ****    0 ROOT    

> <Name>
9926

$$$$
9926
  SciTegic06232017503D

 70 72  0  0  0  0            999 V2000
   -5.4619    2.7310    0.9685 C   0  0
   -4.2377    2.1524    0.5377 O   0  0
   -3.7762    0.9993    1.0914 C   0  0
   -4.3700    0.3923    1.9872 O   0  0
   -2.4904    0.5249    0.5311 C   0  0
   -1.8731    1.1750   -0.4798 C   0  0
   -0.7046    0.8251   -1.0805 O   0  0
   -0.0618   -0.3588   -0.6278 C   0  0  1  0  0  0
    1.3159   -0.2390   -0.8274 O   0  0
    1.7408   -0.1840   -2.1637 C   0  0  1  0  0  0
    1.5278    1.0847   -2.7384 O   0  0
    2.1804    2.1732   -2.0664 C   0  0  2  0  0  0
    1.7408    3.4866   -2.7480 C   0  0
    0.3549    3.7038   -2.5709 O   0  0
    3.7163    1.9681   -2.0838 C   0  0  1  0  0  0
    4.3892    2.9951   -1.3740 O   0  0
    4.0757    0.5770   -1.5198 C   0  0  2  0  0  0
    5.4659    0.3054   -1.5913 O   0  0
    3.2374   -0.5349   -2.1957 C   0  0  2  0  0  0
    3.6559   -0.8057   -3.5225 O   0  0
   -0.3609   -0.6815    0.8556 C   0  0
    0.5381   -0.8854    1.8489 C   0  0
    2.0529   -0.8969    1.7693 C   0  0
   -1.8703   -0.7295    1.1532 C   0  0  2  0  0  0
   -2.5459   -2.0073    0.5805 C   0  0
   -2.1006   -3.3361    1.2071 C   0  0
   -1.5724   -3.3965    2.3198 O   0  0
   -2.3495   -4.3843    0.3903 O   0  0
   -2.0245   -5.7191    0.7702 C   0  0
   -3.0898   -6.3260    1.7029 C   0  0
   -2.7880   -7.7730    2.0581 C   0  0
   -2.1107   -8.0824    3.2412 C   0  0
   -1.8333   -9.4105    3.5652 C   0  0
   -2.2289  -10.4398    2.7087 C   0  0
   -1.9449  -11.7391    3.0472 O   0  0
   -2.9060  -10.1350    1.5205 C   0  0
   -3.3034  -11.1270    0.6605 O   0  0
   -3.1829   -8.8043    1.2003 C   0  0
   -5.6535    3.6490    0.4130 H   0  0
   -5.4261    2.9778    2.0305 H   0  0
   -6.2973    2.0505    0.7984 H   0  0
   -2.2508    2.0770   -0.9401 H   0  0
   -0.4405   -1.1566   -1.2700 H   0  0
    1.1532   -0.8676   -2.7811 H   0  0
    1.8440    2.2066   -1.0272 H   0  0
    2.2666    4.3409   -2.3212 H   0  0
    1.9710    3.4663   -3.8137 H   0  0
    0.1848    3.8467   -1.6371 H   0  0
    4.0657    2.0326   -3.1161 H   0  0
    4.1428    2.9394   -0.4476 H   0  0
    3.8391    0.5583   -0.4544 H   0  0
    5.9431    1.1197   -1.4124 H   0  0
    3.3681   -1.4725   -1.6524 H   0  0
    4.6153   -0.7707   -3.5478 H   0  0
    0.1578   -1.0831    2.8411 H   0  0
    2.4708   -1.2809    2.7000 H   0  0
    2.4357    0.1134    1.6229 H   0  0
    2.4067   -1.5396    0.9629 H   0  0
   -2.0188   -0.7028    2.2361 H   0  0
   -3.6236   -1.9394    0.7296 H   0  0
   -2.3958   -2.0584   -0.4983 H   0  0
   -1.9636   -6.3142   -0.1414 H   0  0
   -1.0356   -5.7594    1.2308 H   0  0
   -3.1748   -5.7402    2.6194 H   0  0
   -4.0733   -6.2736    1.2331 H   0  0
   -1.7976   -7.2951    3.9115 H   0  0
   -1.3097   -9.6363    4.4827 H   0  0
   -1.4806  -11.8144    3.8840 H   0  0
   -3.0668  -12.0027    0.9755 H   0  0
   -3.7039   -8.5716    0.2824 H   0  0
  1  2  1  0
  1 39  1  0
  1 40  1  0
  1 41  1  0
  2  3  1  0
  3  4  2  0
  3  5  1  0
  5  6  2  0
  5 24  1  0
  6  7  1  0
  6 42  1  0
  7  8  1  0
  8  9  1  0
  8 21  1  0
  8 43  1  0
  9 10  1  0
 10 11  1  0
 10 19  1  0
 10 44  1  0
 11 12  1  0
 12 13  1  0
 12 15  1  0
 12 45  1  0
 13 14  1  0
 13 46  1  0
 13 47  1  0
 14 48  1  0
 15 16  1  0
 15 17  1  0
 15 49  1  0
 16 50  1  0
 17 18  1  0
 17 19  1  0
 17 51  1  0
 18 52  1  0
 19 20  1  0
 19 53  1  0
 20 54  1  0
 21 22  2  0
 21 24  1  0
 22 23  1  0
 22 55  1  0
 23 56  1  0
 23 57  1  0
 23 58  1  0
 24 25  1  0
 24 59  1  0
 25 26  1  0
 25 60  1  0
 25 61  1  0
 26 27  2  0
 26 28  1  0
 28 29  1  0
 29 30  1  0
 29 62  1  0
 29 63  1  0
 30 31  1  0
 30 64  1  0
 30 65  1  0
 31 32  2  0
 31 38  1  0
 32 33  1  0
 32 66  1  0
 33 34  2  0
 33 67  1  0
 34 35  1  0
 34 36  1  0
 35 68  1  0
 36 37  1  0
 36 38  2  0
 37 69  1  0
 38 70  1  0
M  END
> <Mol2_MolInfo_Name>
9926

> <Mol2_MolInfo_Type>
SMALL

> <Mol2_MolInfo_Charge>
USER_CHARGES

> <Mol2_Substructures>
     1 UNK         1 GROUP             0       ****    0 ROOT    

> <Name>
9926

$$$$
9926
  SciTegic06232017503D

 70 72  0  0  0  0            999 V2000
   -6.0953    1.8897   -0.7093 C   0  0
   -4.7273    1.6515   -0.4092 O   0  0
   -4.2021    0.4012   -0.4973 C   0  0
   -4.8490   -0.5887   -0.8496 O   0  0
   -2.7613    0.3263   -0.1743 C   0  0
   -2.1959    1.2440    0.6282 C   0  0
   -0.9155    1.3094    1.0496 O   0  0
   -0.0349    0.2613    0.6978 C   0  0  2  0  0  0
    1.2511    0.7741    0.4715 O   0  0
    1.4384    1.5585   -0.6752 C   0  0  2  0  0  0
    1.8210    0.7603   -1.7668 O   0  0
    1.9728    1.4795   -2.9982 C   0  0  2  0  0  0
    2.2377    0.4137   -4.0861 C   0  0
    2.2173    0.9517   -5.3932 O   0  0
    3.0910    2.5504   -2.8621 C   0  0  1  0  0  0
    3.1769    3.3727   -4.0137 O   0  0
    2.8550    3.4150   -1.6021 C   0  0  2  0  0  0
    3.9050    4.3408   -1.3762 O   0  0
    2.5847    2.5346   -0.3593 C   0  0  2  0  0  0
    3.7521    1.8639    0.0958 O   0  0
   -0.4744   -0.7732   -0.3715 C   0  0
    0.3433   -1.7741   -0.7807 C   0  0
    1.7666   -2.0685   -0.3379 C   0  0
   -1.9412   -0.7728   -0.8533 C   0  0  2  0  0  0
   -2.0532   -0.7690   -2.4168 C   0  0
   -1.6663    0.5171   -3.1660 C   0  0
   -1.4924    1.5953   -2.5950 O   0  0
   -1.5567    0.3032   -4.4924 O   0  0
   -1.2395    1.3708   -5.3759 C   0  0
   -1.0909    0.8232   -6.8069 C   0  0
   -0.7653    1.8587   -7.8827 C   0  0
   -0.1888    3.0993   -7.5771 C   0  0
    0.1032    4.0116   -8.5906 C   0  0
   -0.1723    3.6964   -9.9214 C   0  0
    0.1241    4.6094  -10.9016 O   0  0
   -0.7429    2.4575  -10.2385 C   0  0
   -1.0226    2.1207  -11.5394 O   0  0
   -1.0331    1.5467   -9.2204 C   0  0
   -6.3236    2.9478   -0.5828 H   0  0
   -6.7464    1.3198   -0.0452 H   0  0
   -6.3236    1.6140   -1.7399 H   0  0
   -2.7364    2.0827    1.0445 H   0  0
    0.0277   -0.2520    1.6584 H   0  0
    0.5178    2.0800   -0.9493 H   0  0
    1.0294    1.9778   -3.2249 H   0  0
    3.1942   -0.0824   -3.9175 H   0  0
    1.4709   -0.3610   -4.0405 H   0  0
    2.3640    0.2393   -6.0203 H   0  0
    4.0529    2.0425   -2.7713 H   0  0
    3.4265    2.8235   -4.7612 H   0  0
    1.9657    4.0293   -1.7572 H   0  0
    4.1936    4.6817   -2.2263 H   0  0
    2.2550    3.1646    0.4687 H   0  0
    4.2202    1.5169   -0.6668 H   0  0
   -0.0364   -2.4935   -1.4910 H   0  0
    1.8616   -3.1266   -0.0945 H   0  0
    2.0692   -1.5069    0.5441 H   0  0
    2.4637   -1.8417   -1.1446 H   0  0
   -2.3597   -1.7218   -0.5113 H   0  0
   -1.4655   -1.5870   -2.8321 H   0  0
   -3.0824   -0.9920   -2.6971 H   0  0
   -2.0262    2.1263   -5.3407 H   0  0
   -0.3127    1.8460   -5.0554 H   0  0
   -0.3108    0.0609   -6.8278 H   0  0
   -2.0223    0.3241   -7.0805 H   0  0
    0.0437    3.3719   -6.5588 H   0  0
    0.5466    4.9643   -8.3391 H   0  0
   -0.1071    4.2947  -11.7787 H   0  0
   -1.4142    1.2484  -11.6257 H   0  0
   -1.4703    0.5904   -9.4701 H   0  0
  1  2  1  0
  1 39  1  0
  1 40  1  0
  1 41  1  0
  2  3  1  0
  3  4  2  0
  3  5  1  0
  5  6  2  0
  5 24  1  0
  6  7  1  0
  6 42  1  0
  7  8  1  0
  8  9  1  0
  8 21  1  0
  8 43  1  0
  9 10  1  0
 10 11  1  0
 10 19  1  0
 10 44  1  0
 11 12  1  0
 12 13  1  0
 12 15  1  0
 12 45  1  0
 13 14  1  0
 13 46  1  0
 13 47  1  0
 14 48  1  0
 15 16  1  0
 15 17  1  0
 15 49  1  0
 16 50  1  0
 17 18  1  0
 17 19  1  0
 17 51  1  0
 18 52  1  0
 19 20  1  0
 19 53  1  0
 20 54  1  0
 21 22  2  0
 21 24  1  0
 22 23  1  0
 22 55  1  0
 23 56  1  0
 23 57  1  0
 23 58  1  0
 24 25  1  0
 24 59  1  0
 25 26  1  0
 25 60  1  0
 25 61  1  0
 26 27  2  0
 26 28  1  0
 28 29  1  0
 29 30  1  0
 29 62  1  0
 29 63  1  0
 30 31  1  0
 30 64  1  0
 30 65  1  0
 31 32  2  0
 31 38  1  0
 32 33  1  0
 32 66  1  0
 33 34  2  0
 33 67  1  0
 34 35  1  0
 34 36  1  0
 35 68  1  0
 36 37  1  0
 36 38  2  0
 37 69  1  0
 38 70  1  0
M  END
> <Mol2_MolInfo_Name>
9926

> <Mol2_MolInfo_Type>
SMALL

> <Mol2_MolInfo_Charge>
USER_CHARGES

> <Mol2_Substructures>
     1 UNK         1 GROUP             0       ****    0 ROOT    

> <Name>
9926

$$$$
9926
  SciTegic06232017503D

 70 72  0  0  0  0            999 V2000
   -3.8749   -1.6749    3.1405 C   0  0
   -2.8126   -1.5809    2.2022 O   0  0
   -2.8717   -0.7125    1.1632 C   0  0
   -3.8231    0.0514    0.9699 O   0  0
   -1.6827   -0.7581    0.2825 C   0  0
   -1.5104    0.2079   -0.6373 C   0  0
   -0.4866    0.3278   -1.5159 O   0  0
    0.6290   -0.5448   -1.3863 C   0  0  1  0  0  0
    1.8048    0.2020   -1.5762 O   0  0
    1.9972    1.2990   -0.7162 C   0  0  2  0  0  0
    1.1561    2.3706   -1.0684 O   0  0
    1.1981    3.4552   -0.1308 C   0  0  2  0  0  0
    0.0972    4.4661   -0.5163 C   0  0
   -1.1861    3.8889   -0.3799 O   0  0
    2.6200    4.0789   -0.1358 C   0  0  1  0  0  0
    2.7413    5.0972    0.8433 O   0  0
    3.6908    2.9789    0.0657 C   0  0  2  0  0  0
    5.0137    3.4787   -0.0395 O   0  0
    3.4521    1.7733   -0.8767 C   0  0  2  0  0  0
    3.7684    2.0660   -2.2299 O   0  0
    0.6715   -1.4281   -0.1046 C   0  0
    1.7797   -1.8489    0.5534 C   0  0
    3.2432   -1.6345    0.2182 C   0  0
   -0.6995   -1.9308    0.3673 C   0  0  2  0  0  0
   -1.1204   -3.1283   -0.5341 C   0  0
   -2.4076   -3.8483   -0.1213 C   0  0
   -3.3998   -3.8485   -0.8519 O   0  0
   -2.3102   -4.4330    1.0901 O   0  0
   -3.4329   -5.0864    1.6663 C   0  0
   -3.0721   -5.5755    3.0756 C   0  0
   -4.2648   -6.1830    3.7959 C   0  0
   -4.5727   -7.5367    3.6312 C   0  0
   -5.6702   -8.0923    4.2888 C   0  0
   -6.4685   -7.3001    5.1160 C   0  0
   -7.5426   -7.8676    5.7536 O   0  0
   -6.1654   -5.9424    5.2834 C   0  0
   -6.9345   -5.1408    6.0891 O   0  0
   -5.0662   -5.3896    4.6230 C   0  0
   -3.6247   -2.4075    3.9073 H   0  0
   -4.7981   -1.9934    2.6543 H   0  0
   -4.0519   -0.7167    3.6310 H   0  0
   -2.2274    0.9977   -0.8151 H   0  0
    0.5325   -1.1794   -2.2677 H   0  0
    1.7604    1.0170    0.3132 H   0  0
    0.9764    3.0792    0.8718 H   0  0
    0.1358    5.3459    0.1265 H   0  0
    0.2295    4.8104   -1.5426 H   0  0
   -1.3473    3.7140    0.5502 H   0  0
    2.7883    4.5601   -1.1009 H   0  0
    2.2452    5.8657    0.5514 H   0  0
    3.6109    2.6157    1.0923 H   0  0
    5.1501    3.7966   -0.9349 H   0  0
    4.1092    0.9542   -0.5862 H   0  0
    3.3149    2.8742   -2.4802 H   0  0
    1.6405   -2.4652    1.4303 H   0  0
    3.7955   -2.5546    0.4090 H   0  0
    3.6634   -0.8557    0.8542 H   0  0
    3.4125   -1.3767   -0.8251 H   0  0
   -0.6005   -2.2769    1.3984 H   0  0
   -1.2355   -2.7891   -1.5644 H   0  0
   -0.3242   -3.8733   -0.5526 H   0  0
   -4.2727   -4.3912    1.7202 H   0  0
   -3.7419   -5.9260    1.0412 H   0  0
   -2.2651   -6.3084    3.0263 H   0  0
   -2.6786   -4.7498    3.6711 H   0  0
   -3.9645   -8.1601    2.9917 H   0  0
   -5.8993   -9.1395    4.1539 H   0  0
   -8.0289   -7.2352    6.2879 H   0  0
   -6.6283   -4.2313    6.1135 H   0  0
   -4.8348   -4.3421    4.7512 H   0  0
  1  2  1  0
  1 39  1  0
  1 40  1  0
  1 41  1  0
  2  3  1  0
  3  4  2  0
  3  5  1  0
  5  6  2  0
  5 24  1  0
  6  7  1  0
  6 42  1  0
  7  8  1  0
  8  9  1  0
  8 21  1  0
  8 43  1  0
  9 10  1  0
 10 11  1  0
 10 19  1  0
 10 44  1  0
 11 12  1  0
 12 13  1  0
 12 15  1  0
 12 45  1  0
 13 14  1  0
 13 46  1  0
 13 47  1  0
 14 48  1  0
 15 16  1  0
 15 17  1  0
 15 49  1  0
 16 50  1  0
 17 18  1  0
 17 19  1  0
 17 51  1  0
 18 52  1  0
 19 20  1  0
 19 53  1  0
 20 54  1  0
 21 22  2  0
 21 24  1  0
 22 23  1  0
 22 55  1  0
 23 56  1  0
 23 57  1  0
 23 58  1  0
 24 25  1  0
 24 59  1  0
 25 26  1  0
 25 60  1  0
 25 61  1  0
 26 27  2  0
 26 28  1  0
 28 29  1  0
 29 30  1  0
 29 62  1  0
 29 63  1  0
 30 31  1  0
 30 64  1  0
 30 65  1  0
 31 32  2  0
 31 38  1  0
 32 33  1  0
 32 66  1  0
 33 34  2  0
 33 67  1  0
 34 35  1  0
 34 36  1  0
 35 68  1  0
 36 37  1  0
 36 38  2  0
 37 69  1  0
 38 70  1  0
M  END
> <Mol2_MolInfo_Name>
9926

> <Mol2_MolInfo_Type>
SMALL

> <Mol2_MolInfo_Charge>
USER_CHARGES

> <Mol2_Substructures>
     1 UNK         1 GROUP             0       ****    0 ROOT    

> <Name>
9926

$$$$
9977
  SciTegic06232017503D

 48 54  0  0  0  0            999 V2000
   -0.8792   -2.5665    2.8225 O   0  0
   -1.0126   -1.6670    1.9940 C   0  0
   -2.2540   -0.6927    2.0537 C   0  0
   -2.2528    0.5118    1.0542 C   0  0  1  0  0  0
   -2.9008    1.7176    1.4720 O   0  0
   -3.5341    2.4841    0.4230 C   0  0
   -2.8145    2.6444   -0.9280 C   0  0
   -1.4918    2.4784   -1.1449 C   0  0
   -0.9010    2.3540   -2.5648 C   0  0
   -0.0606    1.0717   -2.4512 N   0  3  1  0  0  0
    0.1382   -0.1051   -3.3864 C   0  0
    0.7175   -1.1130   -2.3620 C   0  0
    0.8851   -0.3970   -0.9732 C   0  0  1  0  0  0
    1.1328    1.0406   -1.4822 C   0  0  2  0  0  0
    0.9503    2.1903   -0.4744 C   0  0
   -0.5136    2.1903    0.0064 C   0  0  2  0  0  0
   -0.8033    0.8351    0.6850 C   0  0  2  0  0  0
   -0.3687   -0.4713   -0.0576 C   0  0  2  0  0  0
   -0.0627   -1.4064    1.0296 N   0  0  1  0  0  0
    1.3143   -1.6873    1.0107 C   0  0
    2.0728   -2.4942    1.8669 C   0  0
    3.4480   -2.6128    1.6629 C   0  0
    4.0610   -1.9481    0.5998 C   0  0
    3.2987   -1.1779   -0.2791 C   0  0
    1.9203   -1.0559   -0.0859 C   0  0
   -3.1637   -1.2830    1.9414 H   0  0
   -2.2704   -0.2997    3.0709 H   0  0
   -2.8096    0.1687    0.1771 H   0  0
   -4.4923    2.0060    0.2158 H   0  0
   -3.7707    3.4747    0.8116 H   0  0
   -3.4521    2.7998   -1.7865 H   0  0
   -1.6576    2.1787   -3.3309 H   0  0
   -0.2481    3.1739   -2.8665 H   0  0
   -0.8444   -0.3617   -3.7837 H   0  0
    0.8148    0.2252   -4.1759 H   0  0
    0.0978   -2.0065   -2.2746 H   0  0
    1.6831   -1.4687   -2.7256 H   0  0
    2.0480    1.1533   -2.0689 H   0  0
    1.6354    2.0638    0.3654 H   0  0
    1.2066    3.1489   -0.9281 H   0  0
   -0.6303    2.9883    0.7426 H   0  0
   -0.2881    0.9230    1.6477 H   0  0
   -1.1961   -0.9051   -0.6231 H   0  0
    1.6253   -3.0147    2.7002 H   0  0
    4.0401   -3.2218    2.3302 H   0  0
    5.1252   -2.0479    0.4444 H   0  0
    3.7825   -0.7044   -1.1207 H   0  0
   -0.7540    0.6243   -1.8685 H   0  0
  1  2  2  0
  2  3  1  0
  2 19  1  0
  3  4  1  0
  3 26  1  0
  3 27  1  0
  4  5  1  0
  4 17  1  0
  4 28  1  0
  5  6  1  0
  6  7  1  0
  6 29  1  0
  6 30  1  0
  7  8  2  0
  7 31  1  0
  8  9  1  0
  8 16  1  0
  9 10  1  0
  9 32  1  0
  9 33  1  0
 10 11  1  0
 10 14  1  0
 10 48  1  0
 11 12  1  0
 11 34  1  0
 11 35  1  0
 12 13  1  0
 12 36  1  0
 12 37  1  0
 13 14  1  0
 13 18  1  0
 13 25  1  0
 14 15  1  0
 14 38  1  0
 15 16  1  0
 15 39  1  0
 15 40  1  0
 16 17  1  0
 16 41  1  0
 17 18  1  0
 17 42  1  0
 18 19  1  0
 18 43  1  0
 19 20  1  0
 20 21  2  0
 20 25  1  0
 21 22  1  0
 21 44  1  0
 22 23  2  0
 22 45  1  0
 23 24  1  0
 23 46  1  0
 24 25  2  0
 24 47  1  0
M  CHG  1  10   1
M  END
> <Mol2_MolInfo_Name>
9977

> <Mol2_MolInfo_Type>
SMALL

> <Mol2_MolInfo_Charge>
USER_CHARGES

> <Mol2_Substructures>
     1 UNK         1 GROUP             0       ****    0 ROOT    

> <Name>
9977

$$$$
9977
  SciTegic06232017503D

 48 54  0  0  0  0            999 V2000
  -12.6723   -0.3164   -4.8798 O   0  0
  -13.3367    0.0545   -3.9132 C   0  0
  -13.7090    1.5779   -3.7226 C   0  0
  -14.6001    1.9209   -2.4844 C   0  0  1  0  0  0
  -15.4191    3.0888   -2.5467 O   0  0
  -15.6097    3.7616   -1.2833 C   0  0
  -15.8999    2.9248   -0.0238 C   0  0
  -16.3448    1.6492    0.0041 C   0  0
  -16.4962    0.8535    1.3095 C   0  0
  -15.9110   -0.5847    1.1588 N   0  3  2  0  0  0
  -14.3874   -0.7206    1.3208 C   0  0
  -14.0003   -1.7939    0.3075 C   0  0
  -14.9033   -1.5391   -0.9092 C   0  0  1  0  0  0
  -16.2646   -1.3236   -0.1729 C   0  0  2  0  0  0
  -17.3075   -0.5001   -0.9480 C   0  0
  -16.7014    0.8803   -1.2633 C   0  0  2  0  0  0
  -15.4842    0.7063   -2.1802 C   0  0  2  0  0  0
  -14.4224   -0.3276   -1.7374 C   0  0  2  0  0  0
  -13.8686   -0.8293   -2.9986 N   0  0  1  0  0  0
  -14.1537   -2.1982   -3.1053 C   0  0
  -13.8625   -3.0927   -4.1415 C   0  0
  -14.2728   -4.4221   -4.0378 C   0  0
  -14.9571   -4.8597   -2.9032 C   0  0
  -15.2214   -3.9739   -1.8579 C   0  0
  -14.8151   -2.6398   -1.9500 C   0  0
  -12.7894    2.1635   -3.7075 H   0  0
  -14.2422    1.8679   -4.6287 H   0  0
  -13.8942    2.1146   -1.6707 H   0  0
  -14.7036    4.3355   -1.0845 H   0  0
  -16.4088    4.4931   -1.4029 H   0  0
  -15.6771    3.4014    0.9200 H   0  0
  -16.0190    1.3211    2.1723 H   0  0
  -17.5556    0.7201    1.5317 H   0  0
  -13.9536    0.2434    1.0500 H   0  0
  -14.1699   -0.9811    2.3569 H   0  0
  -12.9419   -1.7276    0.0503 H   0  0
  -14.1592   -2.7917    0.7215 H   0  0
  -16.6935   -2.2696    0.1625 H   0  0
  -17.5697   -1.0171   -1.8724 H   0  0
  -18.2399   -0.4078   -0.3889 H   0  0
  -17.4564    1.4651   -1.7929 H   0  0
  -15.9273    0.4319   -3.1438 H   0  0
  -13.5883    0.1450   -1.2151 H   0  0
  -13.3409   -2.7781   -5.0328 H   0  0
  -14.0609   -5.1144   -4.8394 H   0  0
  -15.2704   -5.8907   -2.8281 H   0  0
  -15.7249   -4.3383   -0.9748 H   0  0
  -16.3301   -1.1486    1.8848 H   0  0
  1  2  2  0
  2  3  1  0
  2 19  1  0
  3  4  1  0
  3 26  1  0
  3 27  1  0
  4  5  1  0
  4 17  1  0
  4 28  1  0
  5  6  1  0
  6  7  1  0
  6 29  1  0
  6 30  1  0
  7  8  2  0
  7 31  1  0
  8  9  1  0
  8 16  1  0
  9 10  1  0
  9 32  1  0
  9 33  1  0
 10 11  1  0
 10 14  1  0
 10 48  1  0
 11 12  1  0
 11 34  1  0
 11 35  1  0
 12 13  1  0
 12 36  1  0
 12 37  1  0
 13 14  1  0
 13 18  1  0
 13 25  1  0
 14 15  1  0
 14 38  1  0
 15 16  1  0
 15 39  1  0
 15 40  1  0
 16 17  1  0
 16 41  1  0
 17 18  1  0
 17 42  1  0
 18 19  1  0
 18 43  1  0
 19 20  1  0
 20 21  2  0
 20 25  1  0
 21 22  1  0
 21 44  1  0
 22 23  2  0
 22 45  1  0
 23 24  1  0
 23 46  1  0
 24 25  2  0
 24 47  1  0
M  CHG  1  10   1
M  END
> <Mol2_MolInfo_Name>
9977

> <Mol2_MolInfo_Type>
SMALL

> <Mol2_MolInfo_Charge>
USER_CHARGES

> <Mol2_Substructures>
     1 UNK         1 GROUP             0       ****    0 ROOT    

> <Name>
9977

$$$$
9977
  SciTegic06232017503D

 48 54  0  0  0  0            999 V2000
   -0.9848   -2.6600    2.7082 O   0  0
   -0.8303   -1.5574    2.1843 C   0  0
   -0.7644   -0.2577    3.0408 C   0  0
    0.2887    0.8047    2.5755 C   0  0  2  0  0  0
   -0.2435    2.0996    2.8773 O   0  0
    0.5673    3.2451    2.6304 C   0  0
    0.5205    3.7120    1.1935 C   0  0
    0.9712    2.9695    0.1696 C   0  0
    0.6076    3.3420   -1.2783 C   0  0
   -0.0699    2.0467   -1.7309 N   0  3  1  0  0  0
   -1.3388    1.7818   -2.5132 C   0  0
   -1.5422    0.3058   -2.1004 C   0  0
   -0.3125   -0.1701   -1.2436 C   0  0  1  0  0  0
    0.7699    0.7675   -1.8166 C   0  0  2  0  0  0
    2.0473    0.9816   -0.9773 C   0  0
    1.6460    1.5919    0.3834 C   0  0  2  0  0  0
    0.7373    0.5595    1.1060 C   0  0  2  0  0  0
   -0.4904   -0.0055    0.3015 C   0  0  2  0  0  0
   -0.6953   -1.3693    0.8312 N   0  0  1  0  0  0
   -0.3730   -2.3111   -0.1610 C   0  0
   -0.4060   -3.7109   -0.1124 C   0  0
   -0.0417   -4.4503   -1.2380 C   0  0
    0.3235   -3.7995   -2.4167 C   0  0
    0.2991   -2.4064   -2.4831 C   0  0
   -0.0687   -1.6586   -1.3606 C   0  0
   -1.7682    0.1681    3.0013 H   0  0
   -0.5930   -0.5251    4.0843 H   0  0
    1.1697    0.7185    3.2160 H   0  0
    0.1781    4.0547    3.2481 H   0  0
    1.5978    3.0893    2.9545 H   0  0
   -0.0066    4.6332    0.9894 H   0  0
   -0.1371    4.1361   -1.3516 H   0  0
    1.4507    3.5594   -1.9350 H   0  0
   -2.0933    2.4751   -2.1403 H   0  0
   -1.1080    1.9651   -3.5636 H   0  0
   -2.4812    0.1513   -1.5674 H   0  0
   -1.6309   -0.2954   -3.0069 H   0  0
    0.9975    0.5928   -2.8711 H   0  0
    2.5666    0.0315   -0.8417 H   0  0
    2.7532    1.6297   -1.4993 H   0  0
    2.5524    1.7474    0.9714 H   0  0
    1.4185   -0.2834    1.2632 H   0  0
   -1.3761    0.5938    0.5217 H   0  0
   -0.6849   -4.2429    0.7844 H   0  0
   -0.0458   -5.5296   -1.1970 H   0  0
    0.5991   -4.3763   -3.2874 H   0  0
    0.5346   -1.9202   -3.4184 H   0  0
   -0.4863    1.9078   -0.8208 H   0  0
  1  2  2  0
  2  3  1  0
  2 19  1  0
  3  4  1  0
  3 26  1  0
  3 27  1  0
  4  5  1  0
  4 17  1  0
  4 28  1  0
  5  6  1  0
  6  7  1  0
  6 29  1  0
  6 30  1  0
  7  8  2  0
  7 31  1  0
  8  9  1  0
  8 16  1  0
  9 10  1  0
  9 32  1  0
  9 33  1  0
 10 11  1  0
 10 14  1  0
 10 48  1  0
 11 12  1  0
 11 34  1  0
 11 35  1  0
 12 13  1  0
 12 36  1  0
 12 37  1  0
 13 14  1  0
 13 18  1  0
 13 25  1  0
 14 15  1  0
 14 38  1  0
 15 16  1  0
 15 39  1  0
 15 40  1  0
 16 17  1  0
 16 41  1  0
 17 18  1  0
 17 42  1  0
 18 19  1  0
 18 43  1  0
 19 20  1  0
 20 21  2  0
 20 25  1  0
 21 22  1  0
 21 44  1  0
 22 23  2  0
 22 45  1  0
 23 24  1  0
 23 46  1  0
 24 25  2  0
 24 47  1  0
M  CHG  1  10   1
M  END
> <Mol2_MolInfo_Name>
9977

> <Mol2_MolInfo_Type>
SMALL

> <Mol2_MolInfo_Charge>
USER_CHARGES

> <Mol2_Substructures>
     1 UNK         1 GROUP             0       ****    0 ROOT    

> <Name>
9977

$$$$
9977
  SciTegic06232017503D

 48 54  0  0  0  0            999 V2000
   -3.8596   -4.0496    4.6883 O   0  0
   -4.3617   -3.1836    3.9731 C   0  0
   -3.9010   -1.6957    4.0341 C   0  0
   -3.6799   -1.0915    2.6075 C   0  0  2  0  0  0
   -3.5461    0.3300    2.5677 O   0  0
   -4.6849    1.1538    2.8028 C   0  0
   -5.8176    1.1449    1.7862 C   0  0
   -5.9729    0.3277    0.7236 C   0  0
   -7.2801    0.3729   -0.0760 C   0  0
   -7.9902   -1.0034    0.0791 N   0  3  2  0  0  0
   -8.7322   -1.2148    1.4126 C   0  0
   -8.4002   -2.6457    1.8119 C   0  0
   -6.9687   -2.9025    1.3197 C   0  0  1  0  0  0
   -7.0494   -2.2389   -0.0951 C   0  0  2  0  0  0
   -5.7047   -1.7600   -0.6897 C   0  0
   -5.0191   -0.8201    0.3331 C   0  0  2  0  0  0
   -4.6549   -1.6744    1.5562 C   0  0  2  0  0  0
   -5.8881   -2.3092    2.2625 C   0  0  2  0  0  0
   -5.3419   -3.4296    3.0449 N   0  0  1  0  0  0
   -5.7303   -4.6358    2.4436 C   0  0
   -5.4213   -5.9538    2.8003 C   0  0
   -5.9288   -7.0087    2.0416 C   0  0
   -6.7620   -6.7526    0.9521 C   0  0
   -7.1128   -5.4409    0.6305 C   0  0
   -6.6105   -4.3761    1.3847 C   0  0
   -4.6695   -1.1506    4.5814 H   0  0
   -2.9878   -1.6220    4.6259 H   0  0
   -2.6726   -1.3836    2.3025 H   0  0
   -5.1016    0.9399    3.7868 H   0  0
   -4.3153    2.1781    2.8506 H   0  0
   -6.6047    1.8589    1.9835 H   0  0
   -7.9855    1.1370    0.2558 H   0  0
   -7.0817    0.5306   -1.1366 H   0  0
   -8.3124   -0.5152    2.1370 H   0  0
   -9.7963   -1.0435    1.2477 H   0  0
   -8.4869   -2.7867    2.8904 H   0  0
   -9.1075   -3.3402    1.3545 H   0  0
   -7.5853   -2.8670   -0.8090 H   0  0
   -5.0726   -2.6249   -0.8984 H   0  0
   -5.8400   -1.2743   -1.6570 H   0  0
   -4.1192   -0.4007   -0.1193 H   0  0
   -4.0599   -2.5065    1.1649 H   0  0
   -6.3259   -1.5863    2.9533 H   0  0
   -4.7785   -6.1796    3.6377 H   0  0
   -5.6772   -8.0269    2.2994 H   0  0
   -7.1568   -7.5735    0.3718 H   0  0
   -7.7989   -5.2668   -0.1853 H   0  0
   -8.6727   -1.0845   -0.6614 H   0  0
  1  2  2  0
  2  3  1  0
  2 19  1  0
  3  4  1  0
  3 26  1  0
  3 27  1  0
  4  5  1  0
  4 17  1  0
  4 28  1  0
  5  6  1  0
  6  7  1  0
  6 29  1  0
  6 30  1  0
  7  8  2  0
  7 31  1  0
  8  9  1  0
  8 16  1  0
  9 10  1  0
  9 32  1  0
  9 33  1  0
 10 11  1  0
 10 14  1  0
 10 48  1  0
 11 12  1  0
 11 34  1  0
 11 35  1  0
 12 13  1  0
 12 36  1  0
 12 37  1  0
 13 14  1  0
 13 18  1  0
 13 25  1  0
 14 15  1  0
 14 38  1  0
 15 16  1  0
 15 39  1  0
 15 40  1  0
 16 17  1  0
 16 41  1  0
 17 18  1  0
 17 42  1  0
 18 19  1  0
 18 43  1  0
 19 20  1  0
 20 21  2  0
 20 25  1  0
 21 22  1  0
 21 44  1  0
 22 23  2  0
 22 45  1  0
 23 24  1  0
 23 46  1  0
 24 25  2  0
 24 47  1  0
M  CHG  1  10   1
M  END
> <Mol2_MolInfo_Name>
9977

> <Mol2_MolInfo_Type>
SMALL

> <Mol2_MolInfo_Charge>
USER_CHARGES

> <Mol2_Substructures>
     1 UNK         1 GROUP             0       ****    0 ROOT    

> <Name>
9977

$$$$
9977
  SciTegic06232017503D

 48 54  0  0  0  0            999 V2000
    1.1275    2.0819    2.7741 O   0  0
    1.0308    1.0130    2.1714 C   0  0
    2.2658    0.1087    1.9065 C   0  0
    2.2474   -0.6220    0.5413 C   0  0  1  0  0  0
    3.4361   -1.4101    0.3863 O   0  0
    3.6142   -2.2113   -0.7909 C   0  0
    2.8697   -1.7788   -2.0462 C   0  0
    1.5261   -1.7816   -2.1202 C   0  0
    0.7852   -1.1708   -3.3186 C   0  0
   -0.2058   -0.2094   -2.6440 N   0  3  1  0  0  0
   -0.2271    1.2983   -2.6698 C   0  0
   -0.1759    1.4936   -1.1564 C   0  0
   -0.9381    0.2993   -0.4608 C   0  0  1  0  0  0
   -1.2477   -0.6996   -1.6239 C   0  0  2  0  0  0
   -0.8655   -2.1818   -1.3419 C   0  0
    0.6462   -2.2269   -0.9281 C   0  0  2  0  0  0
    0.9251   -1.4079    0.3963 C   0  0  2  0  0  0
   -0.2806   -0.4858    0.6998 C   0  0  1  0  0  0
   -0.1676    0.5191    1.7482 N   0  0  2  0  0  0
   -1.4250    1.1507    1.6914 C   0  0
   -2.1249    1.8474    2.6772 C   0  0
   -3.4221    2.2867    2.4023 C   0  0
   -4.0089    2.0321    1.1583 C   0  0
   -3.3012    1.3477    0.1663 C   0  0
   -2.0069    0.9007    0.4341 C   0  0
    3.1617    0.7266    1.9820 H   0  0
    2.3185   -0.6144    2.7213 H   0  0
    2.3274    0.1305   -0.2413 H   0  0
    4.6806   -2.2529   -1.0132 H   0  0
    3.3261   -3.2366   -0.5552 H   0  0
    3.4525   -1.4145   -2.8801 H   0  0
    1.4229   -0.5848   -3.9824 H   0  0
    0.2188   -1.9005   -3.8983 H   0  0
    0.6467    1.6619   -3.2118 H   0  0
   -1.1598    1.5906   -3.1547 H   0  0
    0.8631    1.5481   -0.8435 H   0  0
   -0.6108    2.4675   -0.9229 H   0  0
   -2.2280   -0.5658   -2.0841 H   0  0
   -1.4959   -2.5954   -0.5536 H   0  0
   -1.0573   -2.8125   -2.2113 H   0  0
    0.8934   -3.2731   -0.7379 H   0  0
    0.9364   -2.1493    1.1985 H   0  0
   -1.0159   -1.1957    1.0951 H   0  0
   -1.6911    2.0306    3.6494 H   0  0
   -3.9780    2.8218    3.1582 H   0  0
   -5.0105    2.3826    0.9570 H   0  0
   -3.7529    1.1975   -0.8032 H   0  0
    0.5054   -0.1503   -1.9288 H   0  0
  1  2  2  0
  2  3  1  0
  2 19  1  0
  3  4  1  0
  3 26  1  0
  3 27  1  0
  4  5  1  0
  4 17  1  0
  4 28  1  0
  5  6  1  0
  6  7  1  0
  6 29  1  0
  6 30  1  0
  7  8  2  0
  7 31  1  0
  8  9  1  0
  8 16  1  0
  9 10  1  0
  9 32  1  0
  9 33  1  0
 10 11  1  0
 10 14  1  0
 10 48  1  0
 11 12  1  0
 11 34  1  0
 11 35  1  0
 12 13  1  0
 12 36  1  0
 12 37  1  0
 13 14  1  0
 13 18  1  0
 13 25  1  0
 14 15  1  0
 14 38  1  0
 15 16  1  0
 15 39  1  0
 15 40  1  0
 16 17  1  0
 16 41  1  0
 17 18  1  0
 17 42  1  0
 18 19  1  0
 18 43  1  0
 19 20  1  0
 20 21  2  0
 20 25  1  0
 21 22  1  0
 21 44  1  0
 22 23  2  0
 22 45  1  0
 23 24  1  0
 23 46  1  0
 24 25  2  0
 24 47  1  0
M  CHG  1  10   1
M  END
> <Mol2_MolInfo_Name>
9977

> <Mol2_MolInfo_Type>
SMALL

> <Mol2_MolInfo_Charge>
USER_CHARGES

> <Mol2_Substructures>
     1 UNK         1 GROUP             0       ****    0 ROOT    

> <Name>
9977

$$$$
9977
  SciTegic06232017503D

 48 54  0  0  0  0            999 V2000
   -0.9473   -1.9638   -3.0741 O   0  0
   -1.1433   -1.5308   -1.9388 C   0  0
   -2.5235   -0.9467   -1.5125 C   0  0
   -2.3633    0.2627   -0.5673 C   0  0  1  0  0  0
   -3.5735    0.8822   -0.1403 O   0  0
   -3.5020    2.3066    0.0174 C   0  0
   -2.2590    2.9151    0.6776 C   0  0
   -1.3384    2.2809    1.4381 C   0  0
   -0.0687    3.0248    1.9013 C   0  0
    1.2191    2.1887    1.6036 N   0  3  2  0  0  0
    1.8007    2.3184    0.1938 C   0  0
    1.0331    1.2632   -0.5717 C   0  0
    0.9466    0.0364    0.3755 C   0  0  1  0  0  0
    1.0867    0.6489    1.8196 C   0  0  2  0  0  0
   -0.1706    0.4335    2.7154 C   0  0
   -1.4320    0.8042    1.8725 C   0  0  2  0  0  0
   -1.6277   -0.2100    0.6902 C   0  0  2  0  0  0
   -0.2918   -0.8718    0.3168 C   0  0  1  0  0  0
   -0.1825   -1.5624   -0.9658 N   0  0  2  0  0  0
    1.1907   -1.8505   -1.0540 C   0  0
    1.8483   -2.8585   -1.7616 C   0  0
    3.2220   -3.0308   -1.5794 C   0  0
    3.9260   -2.2139   -0.6897 C   0  0
    3.2663   -1.2106    0.0244 C   0  0
    1.8921   -1.0340   -0.1463 C   0  0
   -3.0649   -0.6481   -2.4110 H   0  0
   -3.1033   -1.7430   -1.0444 H   0  0
   -1.8091    1.0034   -1.1391 H   0  0
   -3.5802    2.7433   -0.9791 H   0  0
   -4.3847    2.6380    0.5642 H   0  0
   -2.0841    3.9570    0.4493 H   0  0
    0.0613    4.0102    1.4508 H   0  0
   -0.0988    3.1568    2.9834 H   0  0
    1.6719    3.3438   -0.1548 H   0  0
    2.8685    2.1196    0.2967 H   0  0
    0.0683    1.7043   -0.7818 H   0  0
    1.4882    1.0472   -1.5401 H   0  0
    2.0069    0.3493    2.3234 H   0  0
   -0.2275   -0.6081    3.0345 H   0  0
   -0.1143    1.0001    3.6461 H   0  0
   -2.3046    0.7371    2.5249 H   0  0
   -2.2419   -1.0136    1.1040 H   0  0
   -0.1659   -1.6641    1.0618 H   0  0
    1.3121   -3.5151   -2.4313 H   0  0
    3.7421   -3.8059   -2.1229 H   0  0
    4.9892   -2.3541   -0.5607 H   0  0
    3.8309   -0.5699    0.6854 H   0  0
    1.9205    2.5288    2.2464 H   0  0
  1  2  2  0
  2  3  1  0
  2 19  1  0
  3  4  1  0
  3 26  1  0
  3 27  1  0
  4  5  1  0
  4 17  1  0
  4 28  1  0
  5  6  1  0
  6  7  1  0
  6 29  1  0
  6 30  1  0
  7  8  2  0
  7 31  1  0
  8  9  1  0
  8 16  1  0
  9 10  1  0
  9 32  1  0
  9 33  1  0
 10 11  1  0
 10 14  1  0
 10 48  1  0
 11 12  1  0
 11 34  1  0
 11 35  1  0
 12 13  1  0
 12 36  1  0
 12 37  1  0
 13 14  1  0
 13 18  1  0
 13 25  1  0
 14 15  1  0
 14 38  1  0
 15 16  1  0
 15 39  1  0
 15 40  1  0
 16 17  1  0
 16 41  1  0
 17 18  1  0
 17 42  1  0
 18 19  1  0
 18 43  1  0
 19 20  1  0
 20 21  2  0
 20 25  1  0
 21 22  1  0
 21 44  1  0
 22 23  2  0
 22 45  1  0
 23 24  1  0
 23 46  1  0
 24 25  2  0
 24 47  1  0
M  CHG  1  10   1
M  END
> <Mol2_MolInfo_Name>
9977

> <Mol2_MolInfo_Type>
SMALL

> <Mol2_MolInfo_Charge>
USER_CHARGES

> <Mol2_Substructures>
     1 UNK         1 GROUP             0       ****    0 ROOT    

> <Name>
9977

$$$$
9977
  SciTegic06232017503D

 48 54  0  0  0  0            999 V2000
    2.4141   -0.7887   -2.4154 O   0  0
    2.2164   -0.2082   -1.3483 C   0  0
    3.1394   -0.3740   -0.1166 C   0  0
    2.3635   -0.7450    1.1717 C   0  0  2  0  0  0
    2.0021   -2.1202    1.1526 O   0  0
    1.6156   -2.6778    2.4030 C   0  0
    0.1590   -2.4802    2.7300 C   0  0
   -0.4817   -1.2980    2.7683 C   0  0
   -2.0193   -1.3159    2.7830 C   0  0
   -2.3145   -0.6725    1.4174 N   0  3  1  0  0  0
   -2.5504   -1.4089    0.1152 C   0  0
   -1.1986   -1.0853   -0.5084 C   0  0
   -0.9006    0.4124   -0.1662 C   0  0  1  0  0  0
   -1.7862    0.7387    1.0909 C   0  0  2  0  0  0
   -0.9758    1.1604    2.3619 C   0  0
    0.1714    0.1073    2.5868 C   0  0  2  0  0  0
    1.2200    0.2688    1.4170 C   0  0  2  0  0  0
    0.5508    0.8117    0.1229 C   0  0  1  0  0  0
    1.2362    0.7149   -1.1606 N   0  0  2  0  0  0
    0.2786    1.2037   -2.0678 C   0  0
    0.4544    1.7253   -3.3502 C   0  0
   -0.6480    2.2583   -4.0221 C   0  0
   -1.9087    2.2700   -3.4171 C   0  0
   -2.0861    1.7351   -2.1387 C   0  0
   -0.9897    1.2037   -1.4582 C   0  0
    3.8926   -1.1314   -0.3386 H   0  0
    3.6773    0.5656    0.0195 H   0  0
    3.0769   -0.6562    1.9948 H   0  0
    1.7791   -3.7529    2.3221 H   0  0
    2.2436   -2.3486    3.2329 H   0  0
   -0.4259   -3.3848    2.8230 H   0  0
   -2.4699   -2.3100    2.7800 H   0  0
   -2.4571   -0.7201    3.5842 H   0  0
   -2.7291   -2.4635    0.3277 H   0  0
   -3.4231   -0.9525   -0.3546 H   0  0
   -0.4525   -1.7362   -0.0511 H   0  0
   -1.1885   -1.3097   -1.5769 H   0  0
   -2.6574    1.3619    0.8841 H   0  0
   -0.5552    2.1571    2.2209 H   0  0
   -1.6147    1.2680    3.2394 H   0  0
    0.6648    0.3378    3.5325 H   0  0
    1.7949    1.1378    1.7481 H   0  0
    0.5563    1.8940    0.2949 H   0  0
    1.4272    1.7416   -3.8195 H   0  0
   -0.5247    2.6695   -5.0131 H   0  0
   -2.7550    2.6795   -3.9488 H   0  0
   -3.0744    1.7125   -1.7036 H   0  0
   -1.3654   -0.9918    1.2815 H   0  0
  1  2  2  0
  2  3  1  0
  2 19  1  0
  3  4  1  0
  3 26  1  0
  3 27  1  0
  4  5  1  0
  4 17  1  0
  4 28  1  0
  5  6  1  0
  6  7  1  0
  6 29  1  0
  6 30  1  0
  7  8  2  0
  7 31  1  0
  8  9  1  0
  8 16  1  0
  9 10  1  0
  9 32  1  0
  9 33  1  0
 10 11  1  0
 10 14  1  0
 10 48  1  0
 11 12  1  0
 11 34  1  0
 11 35  1  0
 12 13  1  0
 12 36  1  0
 12 37  1  0
 13 14  1  0
 13 18  1  0
 13 25  1  0
 14 15  1  0
 14 38  1  0
 15 16  1  0
 15 39  1  0
 15 40  1  0
 16 17  1  0
 16 41  1  0
 17 18  1  0
 17 42  1  0
 18 19  1  0
 18 43  1  0
 19 20  1  0
 20 21  2  0
 20 25  1  0
 21 22  1  0
 21 44  1  0
 22 23  2  0
 22 45  1  0
 23 24  1  0
 23 46  1  0
 24 25  2  0
 24 47  1  0
M  CHG  1  10   1
M  END
> <Mol2_MolInfo_Name>
9977

> <Mol2_MolInfo_Type>
SMALL

> <Mol2_MolInfo_Charge>
USER_CHARGES

> <Mol2_Substructures>
     1 UNK         1 GROUP             0       ****    0 ROOT    

> <Name>
9977

$$$$
9977
  SciTegic06232017503D

 48 54  0  0  0  0            999 V2000
   -1.2804   -2.9027    1.6692 O   0  0
   -1.0722   -1.6918    1.7426 C   0  0
   -2.1237   -0.6955    2.2889 C   0  0
   -2.3354    0.5260    1.3634 C   0  0  2  0  0  0
   -3.0980    0.1499    0.2233 O   0  0
   -3.6599    1.2158   -0.5316 C   0  0
   -2.7179    1.8085   -1.5472 C   0  0
   -1.4876    2.2896   -1.2904 C   0  0
   -0.5634    2.5932   -2.4819 C   0  0
    0.6966    1.6798   -2.3728 N   0  3  2  0  0  0
    0.4927    0.2292   -2.8265 C   0  0
    0.0196   -0.4685   -1.5649 C   0  0
    0.8710    0.1372   -0.4231 C   0  0  1  0  0  0
    1.2986    1.5631   -0.9360 C   0  0  2  0  0  0
    0.6873    2.7352   -0.0982 C   0  0
   -0.8376    2.4425    0.1108 C   0  0  2  0  0  0
   -0.9802    1.2211    1.0959 C   0  0  2  0  0  0
    0.2227    0.2526    0.9589 C   0  0  1  0  0  0
    0.1265   -1.1179    1.4519 N   0  0  2  0  0  0
    1.3206   -1.7090    1.0041 C   0  0
    1.9912   -2.8344    1.4861 C   0  0
    3.2409   -3.1591    0.9539 C   0  0
    3.8146   -2.3626   -0.0419 C   0  0
    3.1404   -1.2386   -0.5260 C   0  0
    1.8920   -0.9046    0.0019 C   0  0
   -3.0658   -1.2249    2.4382 H   0  0
   -1.7894   -0.3742    3.2764 H   0  0
   -2.9731    1.2251    1.9101 H   0  0
   -4.4953    0.7890   -1.0871 H   0  0
   -4.0935    1.9992    0.0925 H   0  0
   -3.0345    1.7330   -2.5779 H   0  0
   -1.0128    2.4099   -3.4596 H   0  0
   -0.2285    3.6306   -2.4613 H   0  0
   -0.1983    0.2043   -3.6699 H   0  0
    1.4723   -0.1003   -3.1759 H   0  0
   -1.0400   -0.2762   -1.4250 H   0  0
    0.1085   -1.5529   -1.6542 H   0  0
    2.3768    1.6670   -1.0643 H   0  0
    1.1915    2.8004    0.8671 H   0  0
    0.8675    3.7097   -0.5540 H   0  0
   -1.2969    3.3192    0.5706 H   0  0
   -0.7918    1.6804    2.0698 H   0  0
    0.9701    0.6881    1.6307 H   0  0
    1.5691   -3.4435    2.2721 H   0  0
    3.7703   -4.0268    1.3194 H   0  0
    4.7795   -2.6263   -0.4498 H   0  0
    3.5814   -0.6559   -1.3212 H   0  0
    1.3973    2.0913   -2.9731 H   0  0
  1  2  2  0
  2  3  1  0
  2 19  1  0
  3  4  1  0
  3 26  1  0
  3 27  1  0
  4  5  1  0
  4 17  1  0
  4 28  1  0
  5  6  1  0
  6  7  1  0
  6 29  1  0
  6 30  1  0
  7  8  2  0
  7 31  1  0
  8  9  1  0
  8 16  1  0
  9 10  1  0
  9 32  1  0
  9 33  1  0
 10 11  1  0
 10 14  1  0
 10 48  1  0
 11 12  1  0
 11 34  1  0
 11 35  1  0
 12 13  1  0
 12 36  1  0
 12 37  1  0
 13 14  1  0
 13 18  1  0
 13 25  1  0
 14 15  1  0
 14 38  1  0
 15 16  1  0
 15 39  1  0
 15 40  1  0
 16 17  1  0
 16 41  1  0
 17 18  1  0
 17 42  1  0
 18 19  1  0
 18 43  1  0
 19 20  1  0
 20 21  2  0
 20 25  1  0
 21 22  1  0
 21 44  1  0
 22 23  2  0
 22 45  1  0
 23 24  1  0
 23 46  1  0
 24 25  2  0
 24 47  1  0
M  CHG  1  10   1
M  END
> <Mol2_MolInfo_Name>
9977

> <Mol2_MolInfo_Type>
SMALL

> <Mol2_MolInfo_Charge>
USER_CHARGES

> <Mol2_Substructures>
     1 UNK         1 GROUP             0       ****    0 ROOT    

> <Name>
9977

$$$$
9983
  SciTegic06232017503D

 53 57  0  0  0  0            999 V2000
   -0.0683    0.1656    0.0797 C   0  0
    1.4630   -0.0631    0.0111 C   0  0  1  0  0  0
    1.7867   -1.5653   -0.2311 C   0  0
    1.9834    0.7455   -1.2054 C   0  0
    3.5149    0.7210   -1.3316 C   0  0
    4.1578    1.3974   -0.1087 C   0  0  2  0  0  0
    5.5678    1.3908   -0.2332 O   0  0
    3.6592    0.8922    1.2929 C   0  0  2  0  0  0
    4.3893   -0.3986    1.8224 C   0  0
    4.0372   -0.6795    3.2047 O   0  0
    2.8957    0.0224    3.6697 C   0  0  2  0  0  0
    2.4566   -0.4839    4.8688 O   0  0
    1.7764   -0.2326    2.6224 C   0  0
    2.1082    0.5641    1.3117 C   0  0  2  0  0  0
    3.2839    1.5475    3.8080 C   0  0  1  0  0  0
    4.2430    2.0116    4.9439 C   0  0  2  0  0  0
    3.9713    1.5353    6.2570 O   0  0
    4.0873    3.5467    4.8206 C   0  0  1  0  0  0
    4.6827    4.1239    3.4959 C   0  0
    4.1054    3.4501    2.2147 C   0  0
    4.0146    1.9177    2.4458 C   0  0  2  0  0  0
    2.5768    3.6556    4.7981 C   0  0
    1.8065    4.6345    5.3079 C   0  0
    2.0409    2.4637    4.1278 C   0  0
    0.8395    2.2556    3.9544 O   0  0
   -0.3250    1.2184    0.2069 H   0  0
   -0.5157   -0.3802    0.9110 H   0  0
   -0.5639   -0.1790   -0.8291 H   0  0
    2.8444   -1.7937   -0.3086 H   0  0
    1.3395   -1.9026   -1.1673 H   0  0
    1.3676   -2.2093    0.5403 H   0  0
    1.5415    0.3623   -2.1271 H   0  0
    1.6482    1.7831   -1.1430 H   0  0
    3.8996   -0.2890   -1.4671 H   0  0
    3.7997    1.2614   -2.2362 H   0  0
    3.8801    2.4461   -0.2088 H   0  0
    5.9385    1.9220    0.4752 H   0  0
    4.1568   -1.2732    1.2246 H   0  0
    5.4744   -0.2966    1.7761 H   0  0
    1.6677    0.0023    5.1198 H   0  0
    1.7506   -1.3080    2.4541 H   0  0
    0.7897    0.0184    3.0095 H   0  0
    1.6573    1.5549    1.3996 H   0  0
    5.2761    1.7250    4.7407 H   0  0
    4.0512    0.5780    6.2544 H   0  0
    4.5328    4.0588    5.6753 H   0  0
    4.5166    5.2010    3.4478 H   0  0
    5.7653    3.9910    3.5145 H   0  0
    3.1356    3.8583    1.9271 H   0  0
    4.7738    3.6826    1.3855 H   0  0
    5.0796    1.7341    2.6141 H   0  0
    2.2534    5.4858    5.8002 H   0  0
    0.7277    4.6077    5.2456 H   0  0
  1  2  1  0
  1 26  1  0
  1 27  1  0
  1 28  1  0
  2  3  1  0
  2  4  1  0
  2 14  1  0
  3 29  1  0
  3 30  1  0
  3 31  1  0
  4  5  1  0
  4 32  1  0
  4 33  1  0
  5  6  1  0
  5 34  1  0
  5 35  1  0
  6  7  1  0
  6  8  1  0
  6 36  1  0
  7 37  1  0
  8  9  1  0
  8 14  1  0
  8 21  1  0
  9 10  1  0
  9 38  1  0
  9 39  1  0
 10 11  1  0
 11 12  1  0
 11 13  1  0
 11 15  1  0
 12 40  1  0
 13 14  1  0
 13 41  1  0
 13 42  1  0
 14 43  1  0
 15 16  1  0
 15 21  1  0
 15 24  1  0
 16 17  1  0
 16 18  1  0
 16 44  1  0
 17 45  1  0
 18 19  1  0
 18 22  1  0
 18 46  1  0
 19 20  1  0
 19 47  1  0
 19 48  1  0
 20 21  1  0
 20 49  1  0
 20 50  1  0
 21 51  1  0
 22 23  2  0
 22 24  1  0
 23 52  1  0
 23 53  1  0
 24 25  2  0
M  END
> <Mol2_MolInfo_Name>
9983

> <Mol2_MolInfo_Type>
SMALL

> <Mol2_MolInfo_Charge>
USER_CHARGES

> <Mol2_Substructures>
     1 UNK         1 GROUP             0       ****    0 ROOT    

> <Name>
9983

$$$$
10124
  SciTegic06232017503D

 98105  0  0  0  0            999 V2000
    1.3776   -4.6634   -6.3382 O   0  0
    1.4510   -4.0569   -5.0626 C   0  0
    0.2046   -4.3532   -4.1981 C   0  0  1  0  0  0
   -0.9239   -3.7207   -4.8206 O   0  0
   -2.1339   -3.8183   -4.1045 C   0  0  2  0  0  0
   -2.0644   -3.2611   -2.8165 O   0  0
   -1.6456   -1.9557   -2.6092 C   0  0
   -1.5411   -1.0344   -3.6637 C   0  0
   -1.1122    0.2637   -3.4350 C   0  0
   -0.7501    0.6501   -2.1541 C   0  0
   -0.8087   -0.2438   -1.0795 C   0  0
   -0.2869    0.1843    0.3015 C   0  0  2  0  0  0
    1.2689    0.0119    0.4627 C   0  0  2  0  0  0
    2.0428    0.8546   -0.5591 C   0  0
    2.2078    2.2257   -0.3413 C   0  0
    2.8386    3.0330   -1.2764 C   0  0
    3.3120    2.4783   -2.4563 C   0  0
    3.1745    1.1052   -2.7120 C   0  0
    3.6606    0.5235   -3.8714 O   0  0
    3.9909    1.2938   -4.9960 C   0  0  1  0  0  0
    5.2434    1.9213   -4.8610 O   0  0
    6.3385    1.0233   -4.6184 C   0  0  2  0  0  0
    7.6046    1.8723   -4.3767 C   0  0
    7.4742    2.6414   -3.1976 O   0  0
    6.4915    0.0347   -5.8030 C   0  0  1  0  0  0
    7.5244   -0.9074   -5.5661 O   0  0
    5.1501   -0.6702   -6.1061 C   0  0  2  0  0  0
    5.2337   -1.4815   -7.2666 O   0  0
    4.0028    0.3616   -6.2180 C   0  0  1  0  0  0
    2.7349   -0.2403   -6.4158 O   0  0
    2.5591    0.2758   -1.7418 C   0  0
    2.4300   -1.2145   -1.9470 C   0  0
    2.6018   -1.7279   -3.0542 O   0  0
    2.2227   -2.0617   -0.7192 C   0  0
    2.5172   -3.4448   -0.6981 C   0  0
    2.9802   -4.1293   -1.7955 O   0  0
    2.3728   -4.1834    0.4740 C   0  0
    1.9473   -3.5825    1.6617 C   0  0
    1.6425   -2.2181    1.6292 C   0  0
    1.7296   -1.4567    0.4570 C   0  0
    1.8111   -4.3771    2.9287 C   0  0
    1.3589   -3.7969    3.9423 O   0  0
    2.1634   -5.5791    2.9099 O   0  5
   -1.0593   -0.5037    1.4331 C   0  0
   -1.1805    0.1328    2.6729 C   0  0
   -1.8090   -0.4737    3.7653 C   0  0
   -2.3197   -1.7633    3.5903 C   0  0
   -2.2298   -2.4176    2.3628 C   0  0
   -2.7840   -3.6728    2.2965 O   0  0
   -1.6166   -1.7894    1.2546 C   0  0
   -1.5252   -2.4492   -0.1007 C   0  0
   -1.7216   -3.6584   -0.2388 O   0  0
   -1.3249   -1.5422   -1.2914 C   0  0
   -1.9262    0.2372    5.0833 C   0  0
   -2.5659   -0.3250    6.0018 O   0  0
   -1.3854    1.3617    5.1949 O   0  5
   -2.5298   -5.2964   -3.9611 C   0  0  2  0  0  0
   -3.7922   -5.4410   -3.3326 O   0  0
   -1.4094   -6.0851   -3.2419 C   0  0  1  0  0  0
   -1.7233   -7.4652   -3.1536 O   0  0
   -0.0506   -5.8627   -3.9430 C   0  0  2  0  0  0
    1.0116   -6.4400   -3.2022 O   0  0
    2.1751   -4.4445   -6.8259 H   0  0
    2.3559   -4.4080   -4.5663 H   0  0
    1.5699   -2.9819   -5.1998 H   0  0
    0.3711   -3.8654   -3.2352 H   0  0
   -2.8608   -3.2614   -4.6979 H   0  0
   -1.7960   -1.3049   -4.6765 H   0  0
   -1.0397    0.9640   -4.2541 H   0  0
   -0.3817    1.6538   -1.9993 H   0  0
   -0.5044    1.2507    0.3940 H   0  0
    1.5359    0.4100    1.4445 H   0  0
    1.8216    2.6753    0.5622 H   0  0
    2.9529    4.0908   -1.0909 H   0  0
    3.7998    3.1348   -3.1602 H   0  0
    3.2736    2.1072   -5.1245 H   0  0
    6.1427    0.4512   -3.7081 H   0  0
    8.4838    1.2378   -4.2604 H   0  0
    7.7993    2.5336   -5.2217 H   0  0
    8.2754    3.1566   -3.0783 H   0  0
    6.7964    0.6003   -6.6855 H   0  0
    7.2339   -1.5132   -4.8801 H   0  0
    4.9217   -1.3550   -5.2866 H   0  0
    5.4288   -0.9186   -8.0195 H   0  0
    4.1711    0.9949   -7.0910 H   0  0
    2.6475   -0.9729   -5.8008 H   0  0
    3.1488   -5.0563   -1.6123 H   0  0
    2.6119   -5.2378    0.4549 H   0  0
    1.2881   -1.7306    2.5270 H   0  0
   -0.7524    1.1196    2.7811 H   0  0
   -2.8031   -2.2706    4.4138 H   0  0
   -3.1320   -3.9689    3.1403 H   0  0
   -2.6530   -5.6929   -4.9707 H   0  0
   -4.4617   -5.0465   -3.8960 H   0  0
   -1.3227   -5.7338   -2.2114 H   0  0
   -2.6578   -7.5473   -2.9484 H   0  0
   -0.0710   -6.3829   -4.9020 H   0  0
    0.9798   -6.0942   -2.3070 H   0  0
  1  2  1  0
  1 63  1  0
  2  3  1  0
  2 64  1  0
  2 65  1  0
  3  4  1  0
  3 61  1  0
  3 66  1  0
  4  5  1  0
  5  6  1  0
  5 57  1  0
  5 67  1  0
  6  7  1  0
  7  8  2  0
  7 53  1  0
  8  9  1  0
  8 68  1  0
  9 10  2  0
  9 69  1  0
 10 11  1  0
 10 70  1  0
 11 12  1  0
 11 53  2  0
 12 13  1  0
 12 44  1  0
 12 71  1  0
 13 14  1  0
 13 40  1  0
 13 72  1  0
 14 15  2  0
 14 31  1  0
 15 16  1  0
 15 73  1  0
 16 17  2  0
 16 74  1  0
 17 18  1  0
 17 75  1  0
 18 19  1  0
 18 31  2  0
 19 20  1  0
 20 21  1  0
 20 29  1  0
 20 76  1  0
 21 22  1  0
 22 23  1  0
 22 25  1  0
 22 77  1  0
 23 24  1  0
 23 78  1  0
 23 79  1  0
 24 80  1  0
 25 26  1  0
 25 27  1  0
 25 81  1  0
 26 82  1  0
 27 28  1  0
 27 29  1  0
 27 83  1  0
 28 84  1  0
 29 30  1  0
 29 85  1  0
 30 86  1  0
 31 32  1  0
 32 33  2  0
 32 34  1  0
 34 35  2  0
 34 40  1  0
 35 36  1  0
 35 37  1  0
 36 87  1  0
 37 38  2  0
 37 88  1  0
 38 39  1  0
 38 41  1  0
 39 40  2  0
 39 89  1  0
 41 42  2  0
 41 43  1  0
 44 45  2  0
 44 50  1  0
 45 46  1  0
 45 90  1  0
 46 47  2  0
 46 54  1  0
 47 48  1  0
 47 91  1  0
 48 49  1  0
 48 50  2  0
 49 92  1  0
 50 51  1  0
 51 52  2  0
 51 53  1  0
 54 55  2  0
 54 56  1  0
 57 58  1  0
 57 59  1  0
 57 93  1  0
 58 94  1  0
 59 60  1  0
 59 61  1  0
 59 95  1  0
 60 96  1  0
 61 62  1  0
 61 97  1  0
 62 98  1  0
M  CHG  2  43  -1  56  -1
M  END
> <Mol2_MolInfo_Name>
10124

> <Mol2_MolInfo_Type>
SMALL

> <Mol2_MolInfo_Charge>
USER_CHARGES

> <Mol2_Substructures>
     1 UNK         1 GROUP             0       ****    0 ROOT    

> <Name>
10124

$$$$
10124
  SciTegic06232017503D

 98105  0  0  0  0            999 V2000
   -0.7430   -5.6707   -6.7651 O   0  0
   -0.1325   -5.1308   -5.6093 C   0  0
   -1.0697   -5.1645   -4.3820 C   0  0  1  0  0  0
   -2.1807   -4.2916   -4.6370 O   0  0
   -3.0567   -4.1216   -3.5472 C   0  0  2  0  0  0
   -2.4125   -3.6082   -2.4097 O   0  0
   -1.8998   -2.3192   -2.3764 C   0  0
   -1.9567   -1.4645   -3.4895 C   0  0
   -1.4450   -0.1774   -3.4276 C   0  0
   -0.8546    0.2714   -2.2565 C   0  0
   -0.7610   -0.5489   -1.1283 C   0  0
   -0.0391   -0.0278    0.1214 C   0  0  2  0  0  0
    1.5245   -0.0891   -0.0356 C   0  0  1  0  0  0
    2.2443    0.7398    1.0367 C   0  0
    2.3050    2.1300    0.9024 C   0  0
    2.8965    2.9232    1.8735 C   0  0
    3.4419    2.3340    3.0040 C   0  0
    3.4167    0.9404    3.1753 C   0  0
    3.9609    0.3245    4.2928 O   0  0
    4.5936    1.0552    5.3116 C   0  0  1  0  0  0
    3.7048    1.8942    6.0122 O   0  0
    2.6028    1.2152    6.6340 C   0  0  2  0  0  0
    1.6572    2.2747    7.2414 C   0  0
    2.2674    2.9984    8.2922 O   0  0
    3.0859    0.1395    7.6417 C   0  0  1  0  0  0
    1.9968   -0.6061    8.1601 O   0  0
    4.1404   -0.7848    6.9970 C   0  0  2  0  0  0
    4.7063   -1.6678    7.9521 O   0  0
    5.2313    0.0512    6.2857 C   0  0  1  0  0  0
    6.2089   -0.7496    5.6452 O   0  0
    2.8249    0.1297    2.1732 C   0  0
    2.7907   -1.3750    2.2929 C   0  0
    3.0136   -1.9415    3.3653 O   0  0
    2.6092   -2.1641    1.0209 C   0  0
    2.9717   -3.5279    0.9214 C   0  0
    3.4792   -4.2431    1.9790 O   0  0
    2.8481   -4.2099   -0.2873 C   0  0
    2.3792   -3.5661   -1.4345 C   0  0
    2.0069   -2.2235   -1.3267 C   0  0
    2.0689   -1.5244   -0.1156 C   0  0
    2.2616   -4.2936   -2.7395 C   0  0
    2.1395   -3.6092   -3.7814 O   0  0
    2.2785   -5.5457   -2.7187 O   0  5
   -0.5460   -0.7045    1.4049 C   0  0
   -0.4851   -0.0163    2.6223 C   0  0
   -0.8216   -0.6180    3.8376 C   0  0
   -1.2529   -1.9460    3.8146 C   0  0
   -1.3763   -2.6421    2.6141 C   0  0
   -1.8451   -3.9306    2.6994 O   0  0
   -1.0511   -2.0228    1.3843 C   0  0
   -1.2374   -2.7198    0.0604 C   0  0
   -1.4363   -3.9355    0.0037 O   0  0
   -1.3078   -1.8530   -1.1744 C   0  0
   -0.7056    0.1367    5.1269 C   0  0
   -0.6662   -0.5216    6.1916 O   0  0
   -0.6407    1.3862    5.0689 O   0  5
   -3.6827   -5.4737   -3.1680 C   0  0  2  0  0  0
   -4.6360   -5.3275   -2.1299 O   0  0
   -2.5831   -6.5123   -2.8382 C   0  0  1  0  0  0
   -3.1409   -7.7870   -2.5615 O   0  0
   -1.5425   -6.5851   -3.9769 C   0  0  2  0  0  0
   -0.4450   -7.4111   -3.6256 O   0  0
   -0.1100   -5.6348   -7.4858 H   0  0
    0.7815   -5.6907   -5.4085 H   0  0
    0.1745   -4.1060   -5.8212 H   0  0
   -0.5031   -4.7434   -3.5499 H   0  0
   -3.8145   -3.4166   -3.8937 H   0  0
   -2.3974   -1.7789   -4.4226 H   0  0
   -1.4966    0.4685   -4.2916 H   0  0
   -0.4417    1.2695   -2.2298 H   0  0
   -0.3174    1.0254    0.2021 H   0  0
    1.7748    0.3849   -0.9875 H   0  0
    1.8678    2.6050    0.0361 H   0  0
    2.9249    3.9962    1.7550 H   0  0
    3.8842    2.9862    3.7403 H   0  0
    5.3412    1.7224    4.8787 H   0  0
    2.0399    0.7141    5.8450 H   0  0
    1.3346    2.9776    6.4727 H   0  0
    0.7527    1.8041    7.6279 H   0  0
    1.6306    3.6300    8.6338 H   0  0
    3.5443    0.6409    8.4960 H   0  0
    1.4935   -0.9672    7.4253 H   0  0
    3.6606   -1.4213    6.2503 H   0  0
    4.0076   -1.9502    8.5477 H   0  0
    5.7738    0.6374    7.0298 H   0  0
    6.3716   -1.5195    6.1956 H   0  0
    3.5333   -3.7197    2.7828 H   0  0
    3.1410   -5.2501   -0.3306 H   0  0
    1.6125   -1.7107   -2.1929 H   0  0
   -0.1203    1.0014    2.6165 H   0  0
   -1.5168   -2.4466    4.7365 H   0  0
   -1.8938   -4.3604    1.8416 H   0  0
   -4.2461   -5.8102   -4.0401 H   0  0
   -4.1687   -5.3154   -1.2912 H   0  0
   -2.0789   -6.2051   -1.9195 H   0  0
   -3.5848   -8.1022   -3.3521 H   0  0
   -2.0114   -7.0579   -4.8414 H   0  0
    0.0252   -7.0033   -2.8938 H   0  0
  1  2  1  0
  1 63  1  0
  2  3  1  0
  2 64  1  0
  2 65  1  0
  3  4  1  0
  3 61  1  0
  3 66  1  0
  4  5  1  0
  5  6  1  0
  5 57  1  0
  5 67  1  0
  6  7  1  0
  7  8  2  0
  7 53  1  0
  8  9  1  0
  8 68  1  0
  9 10  2  0
  9 69  1  0
 10 11  1  0
 10 70  1  0
 11 12  1  0
 11 53  2  0
 12 13  1  0
 12 44  1  0
 12 71  1  0
 13 14  1  0
 13 40  1  0
 13 72  1  0
 14 15  2  0
 14 31  1  0
 15 16  1  0
 15 73  1  0
 16 17  2  0
 16 74  1  0
 17 18  1  0
 17 75  1  0
 18 19  1  0
 18 31  2  0
 19 20  1  0
 20 21  1  0
 20 29  1  0
 20 76  1  0
 21 22  1  0
 22 23  1  0
 22 25  1  0
 22 77  1  0
 23 24  1  0
 23 78  1  0
 23 79  1  0
 24 80  1  0
 25 26  1  0
 25 27  1  0
 25 81  1  0
 26 82  1  0
 27 28  1  0
 27 29  1  0
 27 83  1  0
 28 84  1  0
 29 30  1  0
 29 85  1  0
 30 86  1  0
 31 32  1  0
 32 33  2  0
 32 34  1  0
 34 35  2  0
 34 40  1  0
 35 36  1  0
 35 37  1  0
 36 87  1  0
 37 38  2  0
 37 88  1  0
 38 39  1  0
 38 41  1  0
 39 40  2  0
 39 89  1  0
 41 42  2  0
 41 43  1  0
 44 45  2  0
 44 50  1  0
 45 46  1  0
 45 90  1  0
 46 47  2  0
 46 54  1  0
 47 48  1  0
 47 91  1  0
 48 49  1  0
 48 50  2  0
 49 92  1  0
 50 51  1  0
 51 52  2  0
 51 53  1  0
 54 55  2  0
 54 56  1  0
 57 58  1  0
 57 59  1  0
 57 93  1  0
 58 94  1  0
 59 60  1  0
 59 61  1  0
 59 95  1  0
 60 96  1  0
 61 62  1  0
 61 97  1  0
 62 98  1  0
M  CHG  2  43  -1  56  -1
M  END
> <Mol2_MolInfo_Name>
10124

> <Mol2_MolInfo_Type>
SMALL

> <Mol2_MolInfo_Charge>
USER_CHARGES

> <Mol2_Substructures>
     1 UNK         1 GROUP             0       ****    0 ROOT    

> <Name>
10124

$$$$
10231
  SciTegic06232017503D

 53 56  0  0  0  0            999 V2000
   -0.5849   -0.4377   -1.2519 C   0  0
   -0.0084   -0.0270    0.1181 N   0  3  1  0  0  0
   -0.8056   -0.6462    1.2897 C   0  0
    1.5545   -0.0809    0.1750 C   0  0  1  0  0  0
    2.0829    0.8773    1.2842 C   0  0  2  0  0  0
    1.4610    2.3231    1.1613 C   0  0  1  0  0  0
    0.4324    2.4903    2.1227 O   0  0
    2.4589    3.5356    1.2258 C   0  0  1  0  0  0
    3.7955    3.2770    0.4771 C   0  0
    4.6137    4.3244    0.1581 C   0  0
    5.7029    4.1668   -0.5171 O   0  5
    4.2501    5.7483    0.4736 C   0  0
    5.1744    6.8213    0.5538 C   0  0
    6.5247    6.6646    0.3641 O   0  0
    4.7390    8.1108    0.8588 C   0  0
    3.3967    8.3609    1.1094 C   0  0
    2.4815    7.3169    1.0703 C   0  0
    2.8943    6.0095    0.7725 C   0  0
    1.9053    4.8950    0.7304 C   0  0
    0.6372    5.1223    0.3216 C   0  0
    4.1370    1.8523    0.2332 C   0  0
    4.7034    1.4746   -0.7952 O   0  0
    3.6467    0.8642    1.3338 C   0  0  1  0  0  0
    4.0288    1.3641    2.6198 O   0  0
    4.2044   -0.5829    1.1364 C   0  0
    5.4728   -0.6054    1.4035 O   0  5
    3.5045   -1.6845    0.6965 C   0  0
    4.1119   -3.0196    0.5596 C   0  0
    3.8316   -3.7962   -0.3543 O   0  0
    4.9554   -3.4048    1.5247 N   0  0
    2.0652   -1.5365    0.3472 C   0  0
    1.3285   -2.5139    0.1839 O   0  0
   -0.4517   -1.5122   -1.3762 H   0  0
   -0.0438    0.1261   -2.0128 H   0  0
   -1.6411   -0.1663   -1.2473 H   0  0
   -0.7994   -1.7313    1.1964 H   0  0
   -1.8212   -0.2588    1.2048 H   0  0
   -0.3518   -0.3185    2.2236 H   0  0
    1.8918    0.2763   -0.7989 H   0  0
    1.7466    0.4453    2.2303 H   0  0
    0.9560    2.3849    0.1970 H   0  0
    0.8324    2.4878    2.9956 H   0  0
    2.7294    3.6772    2.2744 H   0  0
    7.0112    7.4873    0.4475 H   0  0
    5.4456    8.9266    0.9117 H   0  0
    3.0672    9.3614    1.3478 H   0  0
    1.4475    7.5347    1.2937 H   0  0
   -0.1093    4.3441    0.3000 H   0  0
    0.3129    6.0982   -0.0084 H   0  0
    4.9881    1.3445    2.6704 H   0  0
    5.1970   -2.7668    2.2689 H   0  0
    5.3778   -4.3207    1.4938 H   0  0
   -0.2040    0.9623    0.1860 H   0  0
  1  2  1  0
  1 33  1  0
  1 34  1  0
  1 35  1  0
  2  3  1  0
  2  4  1  0
  2 53  1  0
  3 36  1  0
  3 37  1  0
  3 38  1  0
  4  5  1  0
  4 31  1  0
  4 39  1  0
  5  6  1  0
  5 23  1  0
  5 40  1  0
  6  7  1  0
  6  8  1  0
  6 41  1  0
  7 42  1  0
  8  9  1  0
  8 19  1  0
  8 43  1  0
  9 10  2  0
  9 21  1  0
 10 11  1  0
 10 12  1  0
 12 13  2  0
 12 18  1  0
 13 14  1  0
 13 15  1  0
 14 44  1  0
 15 16  2  0
 15 45  1  0
 16 17  1  0
 16 46  1  0
 17 18  2  0
 17 47  1  0
 18 19  1  0
 19 20  2  0
 20 48  1  0
 20 49  1  0
 21 22  2  0
 21 23  1  0
 23 24  1  0
 23 25  1  0
 24 50  1  0
 25 26  1  0
 25 27  2  0
 27 28  1  0
 27 31  1  0
 28 29  2  0
 28 30  1  0
 30 51  1  0
 30 52  1  0
 31 32  2  0
M  CHG  3   2   1  11  -1  26  -1
M  END
> <Mol2_MolInfo_Name>
10231

> <Mol2_MolInfo_Type>
SMALL

> <Mol2_MolInfo_Charge>
USER_CHARGES

> <Mol2_Substructures>
     1 UNK         1 GROUP             0       ****    0 ROOT    

> <Name>
10231

$$$$
10255
  SciTegic06232017503D

 24 26  0  0  0  0            999 V2000
   -0.3781    1.7140   -0.2230 O   0  0
   -0.0753    0.2240   -0.0448 S   0  0  2  0  0  0
    1.7389    0.0701    0.0092 C   0  0
    2.3088   -1.0322    0.6464 C   0  0
    3.6947   -1.1644    0.6785 C   0  0
    4.4950   -0.1952    0.0752 C   0  0
    3.9238    0.9050   -0.5631 C   0  0
    2.5383    1.0389   -0.5991 C   0  0
   -0.3069   -0.5618   -1.6736 C   0  0
   -0.1214   -1.9418   -1.8134 C   0  0
   -0.3043   -2.5383   -3.0650 C   0  0
   -0.6741   -1.7092   -4.1376 C   0  0
   -0.9304   -1.9239   -5.4485 N   0  0
   -1.2449   -0.6772   -5.9671 N   0  0
   -1.1866    0.3101   -4.9913 N   0  0
   -0.8316   -0.3423   -3.8612 N   0  0
   -0.6693    0.2764   -2.6818 N   0  0
    1.6844   -1.7814    1.1110 H   0  0
    4.1477   -2.0138    1.1683 H   0  0
    5.5700   -0.2980    0.1021 H   0  0
    4.5527    1.6499   -1.0280 H   0  0
    2.0918    1.8878   -1.0965 H   0  0
    0.1619   -2.5453   -0.9635 H   0  0
   -0.1658   -3.6010   -3.2000 H   0  0
  1  2  2  0
  2  3  1  0
  2  9  1  0
  3  4  2  0
  3  8  1  0
  4  5  1  0
  4 18  1  0
  5  6  2  0
  5 19  1  0
  6  7  1  0
  6 20  1  0
  7  8  2  0
  7 21  1  0
  8 22  1  0
  9 10  1  0
  9 17  2  0
 10 11  2  0
 10 23  1  0
 11 12  1  0
 11 24  1  0
 12 13  2  0
 12 16  1  0
 13 14  1  0
 14 15  2  0
 15 16  1  0
 16 17  1  0
M  END
> <Mol2_MolInfo_Name>
10255

> <Mol2_MolInfo_Type>
SMALL

> <Mol2_MolInfo_Charge>
USER_CHARGES

> <Mol2_Substructures>
     1 UNK         1 GROUP             0       ****    0 ROOT    

> <Name>
10255

$$$$
10255
  SciTegic06232017503D

 24 26  0  0  0  0            999 V2000
   -0.3781    1.7140    0.2230 O   0  0
   -0.0753    0.2240    0.0448 S   0  0  1  0  0  0
    1.7389    0.0701   -0.0092 C   0  0
    2.3088   -1.0322   -0.6464 C   0  0
    3.6947   -1.1644   -0.6785 C   0  0
    4.4950   -0.1952   -0.0752 C   0  0
    3.9238    0.9050    0.5631 C   0  0
    2.5383    1.0389    0.5991 C   0  0
   -0.3069   -0.5618    1.6736 C   0  0
   -0.1214   -1.9418    1.8134 C   0  0
   -0.3043   -2.5383    3.0650 C   0  0
   -0.6741   -1.7092    4.1376 C   0  0
   -0.9304   -1.9240    5.4485 N   0  0
   -1.2449   -0.6772    5.9671 N   0  0
   -1.1866    0.3101    4.9913 N   0  0
   -0.8316   -0.3423    3.8612 N   0  0
   -0.6693    0.2764    2.6818 N   0  0
    1.6844   -1.7814   -1.1110 H   0  0
    4.1477   -2.0138   -1.1682 H   0  0
    5.5700   -0.2980   -0.1021 H   0  0
    4.5527    1.6499    1.0280 H   0  0
    2.0918    1.8878    1.0965 H   0  0
    0.1619   -2.5453    0.9635 H   0  0
   -0.1658   -3.6010    3.2000 H   0  0
  1  2  2  0
  2  3  1  0
  2  9  1  0
  3  4  2  0
  3  8  1  0
  4  5  1  0
  4 18  1  0
  5  6  2  0
  5 19  1  0
  6  7  1  0
  6 20  1  0
  7  8  2  0
  7 21  1  0
  8 22  1  0
  9 10  1  0
  9 17  2  0
 10 11  2  0
 10 23  1  0
 11 12  1  0
 11 24  1  0
 12 13  2  0
 12 16  1  0
 13 14  1  0
 14 15  2  0
 15 16  1  0
 16 17  1  0
M  END
> <Mol2_MolInfo_Name>
10255

> <Mol2_MolInfo_Type>
SMALL

> <Mol2_MolInfo_Charge>
USER_CHARGES

> <Mol2_Substructures>
     1 UNK         1 GROUP             0       ****    0 ROOT    

> <Name>
10255

$$$$
10283
  SciTegic06232017503D

 87 92  0  0  0  0            999 V2000
   -5.3036    2.9927    0.3331 C   0  0
   -3.9810    3.3020   -0.0937 O   0  0
   -2.9926    2.3431    0.0181 C   0  0
   -1.7212    2.7175   -0.4279 C   0  0
   -0.6194    1.8613   -0.3816 C   0  0
   -0.8443    0.5884    0.1432 C   0  0
   -2.1173    0.1684    0.6020 C   0  0
   -3.2027    1.0535    0.5398 C   0  0
   -2.0760   -1.1241    1.0579 N   0  0
   -0.8264   -1.4798    0.9019 C   0  0
   -0.0589   -3.1028    1.2904 S   0  0  2  0  0  0
    1.4124   -2.9265    0.9021 O   0  0
   -0.8774   -4.0791   -0.0664 C   0  0
   -0.3170   -3.7107   -1.4374 C   0  0  1  0  0  0
   -0.9082   -2.6825   -2.0802 N   0  0
   -0.5013   -2.2134   -3.2725 C   0  0
    0.5853   -2.8125   -3.9135 C   0  0  1  0  0  0
    1.0645   -2.2731   -5.2514 C   0  0
    1.2236   -3.9057   -3.3037 C   0  0  1  0  0  0
    2.2964   -4.4905   -3.9347 O   0  0
    1.9930   -5.6980   -4.6225 C   0  0
    0.7794   -4.3563   -2.0424 C   0  0  1  0  0  0
    1.5033   -5.4949   -1.3280 C   0  0
   -0.0358   -0.5025    0.3531 N   0  3
    2.0262   -0.7319    0.0672 Mg  0  0
    4.0912   -0.8886   -0.2371 N   0  3
    4.9371    0.1167    0.1542 C   0  0
    6.1266    0.0570   -0.3874 N   0  0
    6.0751   -1.0606   -1.1802 C   0  0
    7.0685   -1.6124   -2.0016 C   0  0
    6.7715   -2.7798   -2.7288 C   0  0
    7.6644   -3.4127   -3.5723 O   0  0
    8.9687   -2.8679   -3.7417 C   0  0
    5.5076   -3.3680   -2.6185 C   0  0
    4.4975   -2.8461   -1.8084 C   0  0
    4.8050   -1.6845   -1.1010 C   0  0
    4.2803    1.3771    1.3158 S   0  0  2  0  0  0
    2.8198    0.9806    1.5524 O   0  0
    4.2480    2.7866    0.1094 C   0  0
    3.5336    3.9761    0.7386 C   0  0  1  0  0  0
    2.1890    3.9982    0.6308 N   0  0
    1.4128    4.9633    1.1535 C   0  0
    2.0042    6.0209    1.8480 C   0  0  1  0  0  0
    1.1304    7.1090    2.4506 C   0  0
    3.4029    6.0549    1.9851 C   0  0  1  0  0  0
    3.9825    7.0933    2.6757 O   0  0
    4.5426    8.1100    1.8531 C   0  0
    4.1813    5.0120    1.4390 C   0  0  1  0  0  0
    5.6929    4.9819    1.6452 C   0  0
   -5.9458    3.8580    0.1693 H   0  0
   -5.3358    2.7548    1.3973 H   0  0
   -5.7222    2.1597   -0.2337 H   0  0
   -1.5833    3.7119   -0.8280 H   0  0
    0.3508    2.1734   -0.7375 H   0  0
   -4.1731    0.7363    0.8904 H   0  0
   -0.7386   -5.1406    0.1381 H   0  0
   -1.9558   -3.9159   -0.0324 H   0  0
   -1.0587   -1.3738   -3.6628 H   0  0
    2.1280   -2.0366   -5.2007 H   0  0
    0.5333   -1.3666   -5.5445 H   0  0
    0.9339   -3.0228   -6.0321 H   0  0
    2.9000   -6.0842   -5.0875 H   0  0
    1.2605   -5.5305   -5.4138 H   0  0
    1.6097   -6.4701   -3.9544 H   0  0
    2.5104   -5.6534   -1.7142 H   0  0
    0.9382   -6.4229   -1.4177 H   0  0
    1.6245   -5.2767   -0.2672 H   0  0
    8.0359   -1.1376   -2.0641 H   0  0
    9.5306   -3.4901   -4.4381 H   0  0
    9.5194   -2.8470   -2.7999 H   0  0
    8.9300   -1.8597   -4.1570 H   0  0
    5.3000   -4.2661   -3.1826 H   0  0
    3.5325   -3.3221   -1.7358 H   0  0
    5.2672    3.0450   -0.1785 H   0  0
    3.7299    2.4780   -0.8003 H   0  0
    0.3493    4.8480    0.9987 H   0  0
    1.3861    7.2601    3.5002 H   0  0
    0.0700    6.8567    2.4036 H   0  0
    1.2920    8.0555    1.9338 H   0  0
    4.9641    8.8925    2.4844 H   0  0
    3.7836    8.5701    1.2178 H   0  0
    5.3439    7.7331    1.2162 H   0  0
    6.0090    5.6075    2.4802 H   0  0
    6.2100    5.3044    0.7412 H   0  0
    6.0295    3.9732    1.8854 H   0  0
   -1.6931   -2.2300   -1.6325 H   0  0
    1.7388    3.2387    0.1401 H   0  0
  1  2  1  0
  1 50  1  0
  1 51  1  0
  1 52  1  0
  2  3  1  0
  3  4  2  0
  3  8  1  0
  4  5  1  0
  4 53  1  0
  5  6  2  0
  5 54  1  0
  6  7  1  0
  6 24  1  0
  7  8  2  0
  7  9  1  0
  8 55  1  0
  9 10  1  0
 10 11  1  0
 10 24  2  0
 11 12  2  0
 11 13  1  0
 13 14  1  0
 13 56  1  0
 13 57  1  0
 14 15  4  0
 14 22  4  0
 15 16  4  0
 15 86  1  0
 16 17  4  0
 16 58  1  0
 17 18  1  0
 17 19  4  0
 18 59  1  0
 18 60  1  0
 18 61  1  0
 19 20  1  0
 19 22  4  0
 20 21  1  0
 21 62  1  0
 21 63  1  0
 21 64  1  0
 22 23  1  0
 23 65  1  0
 23 66  1  0
 23 67  1  0
 24 25  1  0
 25 26  1  0
 26 27  2  0
 26 36  1  0
 27 28  1  0
 27 37  1  0
 28 29  1  0
 29 30  2  0
 29 36  1  0
 30 31  1  0
 30 68  1  0
 31 32  1  0
 31 34  2  0
 32 33  1  0
 33 69  1  0
 33 70  1  0
 33 71  1  0
 34 35  1  0
 34 72  1  0
 35 36  2  0
 35 73  1  0
 37 38  2  0
 37 39  1  0
 39 40  1  0
 39 74  1  0
 39 75  1  0
 40 41  4  0
 40 48  4  0
 41 42  4  0
 41 87  1  0
 42 43  4  0
 42 76  1  0
 43 44  1  0
 43 45  4  0
 44 77  1  0
 44 78  1  0
 44 79  1  0
 45 46  1  0
 45 48  4  0
 46 47  1  0
 47 80  1  0
 47 81  1  0
 47 82  1  0
 48 49  1  0
 49 83  1  0
 49 84  1  0
 49 85  1  0
M  CHG  2  24   1  26   1
M  END
> <Mol2_MolInfo_Name>
10283

> <Mol2_MolInfo_Type>
SMALL

> <Mol2_MolInfo_Charge>
USER_CHARGES

> <Mol2_Substructures>
     1 UNK         1 GROUP             0       ****    0 ROOT    

> <Name>
10283

$$$$
10283
  SciTegic06232017503D

 87 92  0  0  0  0            999 V2000
   -1.9239    6.4976   -0.7642 C   0  0
   -2.2830    5.1765   -0.3740 O   0  0
   -1.3401    4.1692   -0.4455 C   0  0
   -0.0214    4.3523   -0.9008 C   0  0
    0.9080    3.3106   -0.9501 C   0  0
    0.4655    2.0578   -0.5233 C   0  0
   -0.8546    1.8384   -0.0643 C   0  0
   -1.7625    2.9048   -0.0261 C   0  0
   -1.0368    0.5321    0.2995 N   0  0
    0.1164   -0.0378    0.0562 C   0  0
    0.5499   -1.7996    0.3270 S   0  0  1  0  0  0
    0.3873   -2.0293    1.8305 O   0  0
   -0.9334   -2.5405   -0.5108 C   0  0
   -0.9688   -4.0449   -0.2702 C   0  0  1  0  0  0
   -0.2038   -4.8067   -1.0788 N   0  0
   -0.1233   -6.1458   -0.9859 C   0  0
   -0.8527   -6.8148   -0.0004 C   0  0  2  0  0  0
   -0.7834   -8.3321    0.0772 C   0  0
   -1.6598   -6.0688    0.8785 C   0  0  2  0  0  0
   -2.3941   -6.7075    1.8495 O   0  0
   -1.6856   -6.9422    3.0601 C   0  0
   -1.7295   -4.6675    0.7392 C   0  0  3  0  0  0
   -2.6126   -3.8378    1.6681 C   0  0
    1.0752    0.8288   -0.4169 N   0  3
    3.1150    0.3791   -0.6140 Mg  0  0
    5.1714    0.0276   -0.8253 N   0  3
    5.8975   -0.6831    0.1011 C   0  0
    7.1840   -0.4501    0.0669 N   0  0
    7.3364    0.4469   -0.9551 C   0  0
    8.5080    1.0409   -1.4444 C   0  0
    8.4081    1.9447   -2.5173 C   0  0
    9.4889    2.5912   -3.0861 O   0  0
   10.7953    2.3463   -2.5757 C   0  0
    7.1569    2.2342   -3.0700 C   0  0
    5.9710    1.6610   -2.6053 C   0  0
    6.0872    0.7649   -1.5417 C   0  0
    5.0194   -1.8053    1.2555 S   0  0  2  0  0  0
    3.5785   -1.8323    0.7414 O   0  0
    5.0585   -0.7015    2.7536 C   0  0
    3.7701    0.1089    2.8990 C   0  0  1  0  0  0
    2.7674   -0.5200    3.5365 N   0  0
    1.5721    0.0337    3.7782 C   0  0
    1.3013    1.3390    3.3609 C   0  0  2  0  0  0
   -0.1050    1.8504    3.6513 C   0  0
    2.3191    2.0647    2.6801 C   0  0  2  0  0  0
    2.2465    3.3663    2.2014 O   0  0
    1.2159    4.2742    2.5581 C   0  0
    3.5584    1.4246    2.4381 C   0  0  1  0  0  0
    4.6499    2.1958    1.6947 C   0  0
   -2.7827    7.1564   -0.6363 H   0  0
   -1.6306    6.5391   -1.8143 H   0  0
   -1.1126    6.8901   -0.1490 H   0  0
    0.3132    5.3256   -1.2263 H   0  0
    1.9171    3.4771   -1.2973 H   0  0
   -2.7734    2.7569    0.3254 H   0  0
   -1.8410   -2.0683   -0.1366 H   0  0
   -0.8890   -2.3298   -1.5804 H   0  0
    0.5187   -6.6304   -1.7077 H   0  0
   -1.7514   -8.7528    0.3515 H   0  0
   -0.0475   -8.6474    0.8169 H   0  0
   -0.5201   -8.7662   -0.8883 H   0  0
   -2.3455   -7.4329    3.7751 H   0  0
   -1.3431   -6.0095    3.5114 H   0  0
   -0.8219   -7.5906    2.9081 H   0  0
   -3.0746   -4.4224    2.4629 H   0  0
   -3.4080   -3.3554    1.0995 H   0  0
   -2.0282   -3.0506    2.1440 H   0  0
    9.4592    0.7975   -0.9962 H   0  0
   11.5183    2.9344   -3.1406 H   0  0
   11.0741    1.2962   -2.6760 H   0  0
   10.8775    2.6410   -1.5283 H   0  0
    7.1016    2.9319   -3.8933 H   0  0
    5.0185    1.9053   -3.0518 H   0  0
    5.1851   -1.3415    3.6282 H   0  0
    5.9495   -0.0766    2.7497 H   0  0
    0.8656   -0.6042    4.2901 H   0  0
   -0.0908    2.6784    4.3580 H   0  0
   -0.7408    1.0744    4.0801 H   0  0
   -0.6011    2.1714    2.7385 H   0  0
    1.4877    5.2607    2.1836 H   0  0
    1.1090    4.3694    3.6382 H   0  0
    0.2633    4.0260    2.0955 H   0  0
    4.3121    2.4346    0.6854 H   0  0
    5.6026    1.6801    1.6143 H   0  0
    4.8453    3.1432    2.1987 H   0  0
    0.3342   -4.3458   -1.7990 H   0  0
    2.9250   -1.4665    3.8532 H   0  0
  1  2  1  0
  1 50  1  0
  1 51  1  0
  1 52  1  0
  2  3  1  0
  3  4  2  0
  3  8  1  0
  4  5  1  0
  4 53  1  0
  5  6  2  0
  5 54  1  0
  6  7  1  0
  6 24  1  0
  7  8  2  0
  7  9  1  0
  8 55  1  0
  9 10  1  0
 10 11  1  0
 10 24  2  0
 11 12  2  0
 11 13  1  0
 13 14  1  0
 13 56  1  0
 13 57  1  0
 14 15  4  0
 14 22  4  0
 15 16  4  0
 15 86  1  0
 16 17  4  0
 16 58  1  0
 17 18  1  0
 17 19  4  0
 18 59  1  0
 18 60  1  0
 18 61  1  0
 19 20  1  0
 19 22  4  0
 20 21  1  0
 21 62  1  0
 21 63  1  0
 21 64  1  0
 22 23  1  0
 23 65  1  0
 23 66  1  0
 23 67  1  0
 24 25  1  0
 25 26  1  0
 26 27  2  0
 26 36  1  0
 27 28  1  0
 27 37  1  0
 28 29  1  0
 29 30  2  0
 29 36  1  0
 30 31  1  0
 30 68  1  0
 31 32  1  0
 31 34  2  0
 32 33  1  0
 33 69  1  0
 33 70  1  0
 33 71  1  0
 34 35  1  0
 34 72  1  0
 35 36  2  0
 35 73  1  0
 37 38  2  0
 37 39  1  0
 39 40  1  0
 39 74  1  0
 39 75  1  0
 40 41  4  0
 40 48  4  0
 41 42  4  0
 41 87  1  0
 42 43  4  0
 42 76  1  0
 43 44  1  0
 43 45  4  0
 44 77  1  0
 44 78  1  0
 44 79  1  0
 45 46  1  0
 45 48  4  0
 46 47  1  0
 47 80  1  0
 47 81  1  0
 47 82  1  0
 48 49  1  0
 49 83  1  0
 49 84  1  0
 49 85  1  0
M  CHG  2  24   1  26   1
M  END
> <Mol2_MolInfo_Name>
10283

> <Mol2_MolInfo_Type>
SMALL

> <Mol2_MolInfo_Charge>
USER_CHARGES

> <Mol2_Substructures>
     1 UNK         1 GROUP             0       ****    0 ROOT    

> <Name>
10283

$$$$
10283
  SciTegic06232017503D

 87 92  0  0  0  0            999 V2000
   -3.5435    5.3660    0.6257 C   0  0
   -3.5757    3.9445    0.6960 O   0  0
   -2.4744    3.2198    0.2819 C   0  0
   -1.2864    3.7958   -0.2044 C   0  0
   -0.1919    3.0299   -0.6138 C   0  0
   -0.3293    1.6438   -0.5220 C   0  0
   -1.5111    1.0328   -0.0379 C   0  0
   -2.5895    1.8298    0.3683 C   0  0
   -1.3968   -0.3304   -0.0423 N   0  0
   -0.2063   -0.5535   -0.5390 C   0  0
    0.6337   -2.1737   -0.7744 S   0  0  1  0  0  0
    1.2849   -2.4940    0.5712 O   0  0
   -0.8736   -3.2531   -0.9062 C   0  0
   -0.4582   -4.7122   -0.7677 C   0  0  1  0  0  0
   -0.0346   -5.3338   -1.8874 N   0  0
    0.4013   -6.6057   -1.9148 C   0  0
    0.4477   -7.3448   -0.7304 C   0  0  2  0  0  0
    0.9331   -8.7852   -0.7622 C   0  0
    0.0279   -6.7431    0.4692 C   0  0  2  0  0  0
    0.0791   -7.4581    1.6420 O   0  0
    1.2787   -7.2737    2.3844 C   0  0
   -0.4508   -5.4168    0.4528 C   0  0  2  0  0  0
   -0.9565   -4.7577    1.7342 C   0  0
    0.5092    0.5898   -0.8091 N   0  3
    2.6051    0.5783   -0.8597 Mg  0  0
    4.6996    0.4975   -0.8311 N   0  3
    5.3719   -0.4175   -0.0606 C   0  0
    6.6457   -0.1624    0.0897 N   0  0
    6.8439    0.9760   -0.6465 C   0  0
    8.0261    1.6975   -0.8598 C   0  0
    7.9867    2.8427   -1.6602 C   0  0
    9.1888    3.5018   -1.8329 O   0  0
    9.2374    4.6612   -2.6574 C   0  0
    6.7697    3.2566   -2.2326 C   0  0
    5.5725    2.5632   -2.0384 C   0  0
    5.6353    1.4200   -1.2403 C   0  0
    4.3984   -1.7921    0.6577 S   0  0  1  0  0  0
    5.3382   -2.9988    0.6695 O   0  0
    4.3259   -1.1335    2.3905 C   0  0
    3.3154   -1.9495    3.1848 C   0  0  2  0  0  0
    3.7432   -3.1294    3.6793 N   0  0
    2.9555   -3.9838    4.3559 C   0  0
    1.6154   -3.6583    4.5776 C   0  0  2  0  0  0
    0.7195   -4.6370    5.3202 C   0  0
    1.1172   -2.4372    4.0902 C   0  0  2  0  0  0
   -0.2072   -2.1236    4.2834 O   0  0
   -0.4532   -1.2686    5.3926 C   0  0
    1.9723   -1.5700    3.3790 C   0  0  2  0  0  0
    1.4334   -0.2710    2.7831 C   0  0
   -4.4928    5.7649    0.9830 H   0  0
   -3.4056    5.7129   -0.3995 H   0  0
   -2.7541    5.7802    1.2547 H   0  0
   -1.1893    4.8687   -0.2732 H   0  0
    0.7109    3.4959   -0.9804 H   0  0
   -3.4987    1.3808    0.7415 H   0  0
   -1.5939   -2.9876   -0.1340 H   0  0
   -1.3625   -3.0827   -1.8664 H   0  0
    0.7017   -6.9796   -2.8832 H   0  0
    0.2776   -9.4207   -0.1655 H   0  0
    1.9393   -8.8601   -0.3490 H   0  0
    0.9333   -9.1907   -1.7750 H   0  0
    1.2190   -7.8398    3.3139 H   0  0
    1.4417   -6.2265    2.6443 H   0  0
    2.1495   -7.6315    1.8332 H   0  0
   -0.9152   -5.4141    2.6026 H   0  0
   -1.9951   -4.4489    1.6134 H   0  0
   -0.3766   -3.8641    1.9605 H   0  0
    8.9570    1.3742   -0.4168 H   0  0
   10.2594    5.0388   -2.6870 H   0  0
    8.6028    5.4579   -2.2662 H   0  0
    8.9398    4.4356   -3.6827 H   0  0
    6.7308    4.1405   -2.8509 H   0  0
    4.6510    2.9004   -2.4896 H   0  0
    5.3133   -1.2066    2.8492 H   0  0
    4.0603   -0.0766    2.3774 H   0  0
    3.4279   -4.8976    4.6871 H   0  0
   -0.2788   -4.6591    4.8823 H   0  0
    0.6252   -4.3500    6.3679 H   0  0
    1.1069   -5.6553    5.2634 H   0  0
   -1.5228   -1.0732    5.4666 H   0  0
    0.0527   -0.3076    5.2895 H   0  0
   -0.1349   -1.7304    6.3288 H   0  0
    0.3486   -0.2833    2.6753 H   0  0
    1.8265   -0.1114    1.7792 H   0  0
    1.7206    0.5820    3.3982 H   0  0
   -0.0456   -4.8150   -2.7543 H   0  0
    4.7060   -3.3915    3.5193 H   0  0
  1  2  1  0
  1 50  1  0
  1 51  1  0
  1 52  1  0
  2  3  1  0
  3  4  2  0
  3  8  1  0
  4  5  1  0
  4 53  1  0
  5  6  2  0
  5 54  1  0
  6  7  1  0
  6 24  1  0
  7  8  2  0
  7  9  1  0
  8 55  1  0
  9 10  1  0
 10 11  1  0
 10 24  2  0
 11 12  2  0
 11 13  1  0
 13 14  1  0
 13 56  1  0
 13 57  1  0
 14 15  4  0
 14 22  4  0
 15 16  4  0
 15 86  1  0
 16 17  4  0
 16 58  1  0
 17 18  1  0
 17 19  4  0
 18 59  1  0
 18 60  1  0
 18 61  1  0
 19 20  1  0
 19 22  4  0
 20 21  1  0
 21 62  1  0
 21 63  1  0
 21 64  1  0
 22 23  1  0
 23 65  1  0
 23 66  1  0
 23 67  1  0
 24 25  1  0
 25 26  1  0
 26 27  2  0
 26 36  1  0
 27 28  1  0
 27 37  1  0
 28 29  1  0
 29 30  2  0
 29 36  1  0
 30 31  1  0
 30 68  1  0
 31 32  1  0
 31 34  2  0
 32 33  1  0
 33 69  1  0
 33 70  1  0
 33 71  1  0
 34 35  1  0
 34 72  1  0
 35 36  2  0
 35 73  1  0
 37 38  2  0
 37 39  1  0
 39 40  1  0
 39 74  1  0
 39 75  1  0
 40 41  4  0
 40 48  4  0
 41 42  4  0
 41 87  1  0
 42 43  4  0
 42 76  1  0
 43 44  1  0
 43 45  4  0
 44 77  1  0
 44 78  1  0
 44 79  1  0
 45 46  1  0
 45 48  4  0
 46 47  1  0
 47 80  1  0
 47 81  1  0
 47 82  1  0
 48 49  1  0
 49 83  1  0
 49 84  1  0
 49 85  1  0
M  CHG  2  24   1  26   1
M  END
> <Mol2_MolInfo_Name>
10283

> <Mol2_MolInfo_Type>
SMALL

> <Mol2_MolInfo_Charge>
USER_CHARGES

> <Mol2_Substructures>
     1 UNK         1 GROUP             0       ****    0 ROOT    

> <Name>
10283

$$$$
10283
  SciTegic06232017503D

 86 91  0  0  0  0            999 V2000
   -3.7817    5.0820    0.7453 C   0  0
   -3.7682    3.6965    1.0723 O   0  0
   -2.6402    2.9466    0.7996 C   0  0
   -1.4705    3.4644    0.2139 C   0  0
   -0.3469    2.6758   -0.0458 C   0  0
   -0.4339    1.3284    0.3072 C   0  0
   -1.5957    0.7749    0.8971 C   0  0
   -2.7062    1.5933    1.1434 C   0  0
   -1.4315   -0.5604    1.1489 N   0  0
   -0.2108   -0.8173    0.7503 C   0  0
    0.6624   -2.4325    0.8041 S   0  0  2  0  0  0
   -0.0944   -3.3288   -0.1778 O   0  0
    0.1185   -2.9388    2.5066 C   0  0
    0.5681   -4.3671    2.7884 C   0  0  1  0  0  0
   -0.2267   -5.3533    2.3249 N   0  0
    0.0344   -6.6618    2.4907 C   0  0
    1.1906   -7.0556    3.1686 C   0  0  2  0  0  0
    1.4487   -8.5383    3.3895 C   0  0
    2.0653   -6.0674    3.6608 C   0  0  2  0  0  0
    3.2081   -6.4169    4.3413 O   0  0
    4.2993   -6.7973    3.5116 C   0  0
    1.7482   -4.7063    3.4769 C   0  0  1  0  0  0
    2.6769   -3.6156    3.9983 C   0  0
    0.4423    0.2705    0.2200 N   0  3
    2.4961    0.2948   -0.2017 Mg  0  0
    4.5642    0.3409   -0.5467 N   0  3
    5.4551    0.6950    0.4366 C   0  0
    6.7095    0.5376    0.1002 N   0  0
    6.6537    0.0342   -1.1730 C   0  0
    7.7051   -0.3345   -2.0234 C   0  0
    7.3957   -0.8346   -3.3010 C   0  0
    8.3435   -1.2314   -4.2251 O   0  0
    9.7235   -1.1579   -3.8825 C   0  0
    6.0603   -0.9530   -3.6987 C   0  0
    4.9886   -0.5954   -2.8773 C   0  0
    5.3126   -0.1021   -1.6127 C   0  0
    4.7788    1.3273    2.0233 S   0  0  2  0  0  0
    5.9890    1.4541    2.9505 O   0  0
    3.8946   -0.2373    2.4959 C   0  0
    2.9245    0.0185    3.6414 C   0  0
    1.7129    0.4830    3.2411 N   0  0
    0.7657    0.7061    4.1819 C   0  0
    0.9733    0.4648    5.5403 C   0  0
   -0.1362    0.7421    6.5418 C   0  0
    2.2264   -0.0181    5.9490 C   0  0
    2.4558   -0.2638    7.2816 O   0  0
    2.2459   -1.6161    7.6684 C   0  0
    3.2346   -0.2331    4.9902 C   0  0
    4.6216   -0.7098    5.4111 C   0  0
   -4.7447    5.5083    1.0257 H   0  0
   -3.6499    5.2418   -0.3257 H   0  0
   -3.0090    5.6292    1.2874 H   0  0
   -1.4110    4.5084   -0.0542 H   0  0
    0.5410    3.0971   -0.4937 H   0  0
   -3.6010    1.1883    1.5932 H   0  0
    0.5246   -2.2413    3.2382 H   0  0
   -0.9681   -2.8784    2.5832 H   0  0
   -0.6968   -7.3429    2.0793 H   0  0
    2.0159   -8.7140    4.3042 H   0  0
    1.9941   -8.9641    2.5470 H   0  0
    0.5098   -9.0823    3.5015 H   0  0
    5.1716   -6.9963    4.1342 H   0  0
    4.5661   -6.0023    2.8127 H   0  0
    4.0875   -7.7027    2.9419 H   0  0
    3.6210   -3.9975    4.3857 H   0  0
    2.1856   -3.0468    4.7880 H   0  0
    2.9199   -2.9219    3.1937 H   0  0
    8.7257   -0.2306   -1.6874 H   0  0
   10.3228   -1.4986   -4.7268 H   0  0
    9.9578   -1.7993   -3.0315 H   0  0
   10.0274   -0.1351   -3.6549 H   0  0
    5.8444   -1.3392   -4.6844 H   0  0
    3.9669   -0.6992   -3.2118 H   0  0
    3.3423   -0.6314    1.6419 H   0  0
    4.6278   -0.9980    2.7626 H   0  0
   -0.1813    1.0810    3.8205 H   0  0
    0.2645    1.2362    7.4276 H   0  0
   -0.6056   -0.1891    6.8592 H   0  0
   -0.8980    1.4035    6.1271 H   0  0
    2.4027   -1.7130    8.7425 H   0  0
    2.9421   -2.2918    7.1697 H   0  0
    1.2282   -1.9443    7.4501 H   0  0
    4.8094   -0.5545    6.4736 H   0  0
    5.3958   -0.1521    4.8853 H   0  0
    4.7529   -1.7664    5.1783 H   0  0
   -1.0661   -5.0932    1.8257 H   0  0
  1  2  1  0
  1 50  1  0
  1 51  1  0
  1 52  1  0
  2  3  1  0
  3  4  2  0
  3  8  1  0
  4  5  1  0
  4 53  1  0
  5  6  2  0
  5 54  1  0
  6  7  1  0
  6 24  1  0
  7  8  2  0
  7  9  1  0
  8 55  1  0
  9 10  1  0
 10 11  1  0
 10 24  2  0
 11 12  2  0
 11 13  1  0
 13 14  1  0
 13 56  1  0
 13 57  1  0
 14 15  4  0
 14 22  4  0
 15 16  4  0
 15 86  1  0
 16 17  4  0
 16 58  1  0
 17 18  1  0
 17 19  4  0
 18 59  1  0
 18 60  1  0
 18 61  1  0
 19 20  1  0
 19 22  4  0
 20 21  1  0
 21 62  1  0
 21 63  1  0
 21 64  1  0
 22 23  1  0
 23 65  1  0
 23 66  1  0
 23 67  1  0
 24 25  1  0
 25 26  1  0
 26 27  2  0
 26 36  1  0
 27 28  1  0
 27 37  1  0
 28 29  1  0
 29 30  2  0
 29 36  1  0
 30 31  1  0
 30 68  1  0
 31 32  1  0
 31 34  2  0
 32 33  1  0
 33 69  1  0
 33 70  1  0
 33 71  1  0
 34 35  1  0
 34 72  1  0
 35 36  2  0
 35 73  1  0
 37 38  2  0
 37 39  1  0
 39 40  1  0
 39 74  1  0
 39 75  1  0
 40 41  2  0
 40 48  1  0
 41 42  1  0
 42 43  2  0
 42 76  1  0
 43 44  1  0
 43 45  1  0
 44 77  1  0
 44 78  1  0
 44 79  1  0
 45 46  1  0
 45 48  2  0
 46 47  1  0
 47 80  1  0
 47 81  1  0
 47 82  1  0
 48 49  1  0
 49 83  1  0
 49 84  1  0
 49 85  1  0
M  CHG  2  24   1  26   1
M  END
> <Mol2_MolInfo_Name>
10283

> <Mol2_MolInfo_Type>
SMALL

> <Mol2_MolInfo_Charge>
USER_CHARGES

> <Mol2_Substructures>
     1 UNK         1 GROUP             0       ****    0 ROOT    

> <Name>
10283

$$$$
10283
  SciTegic06232017503D

 86 91  0  0  0  0            999 V2000
   -5.1484    3.5149    0.7714 C   0  0
   -3.7869    3.8372    0.5073 O   0  0
   -2.8307    2.8419    0.5767 C   0  0
   -1.5133    3.2347    0.3202 C   0  0
   -0.4362    2.3462    0.3542 C   0  0
   -0.7347    1.0179    0.6610 C   0  0
   -2.0561    0.5810    0.9250 C   0  0
   -3.1147    1.4991    0.8835 C   0  0
   -2.0866   -0.7608    1.1972 N   0  0
   -0.8360   -1.1373    1.1051 C   0  0
   -0.1606   -2.8221    1.3718 S   0  0  1  0  0  0
   -0.6712   -3.2471    2.7498 O   0  0
   -1.2180   -3.6881    0.1167 C   0  0
   -0.9800   -5.1895    0.2003 C   0  0  2  0  0  0
   -1.7137   -5.8669    1.1073 N   0  0
   -1.6069   -7.1911    1.3146 C   0  0
   -0.6985   -7.9357    0.5585 C   0  0  2  0  0  0
   -0.5677   -9.4314    0.7963 C   0  0
    0.0886   -7.2824   -0.4061 C   0  0  2  0  0  0
    0.9868   -8.0137   -1.1470 O   0  0
    0.5301   -8.3617   -2.4483 C   0  0
   -0.0382   -5.8879   -0.5798 C   0  0  2  0  0  0
    0.8597   -5.1427   -1.5635 C   0  0
    0.0306   -0.1188    0.7889 N   0  3
    2.1064   -0.3638    0.6213 Mg  0  0
    4.1801   -0.6253    0.4616 N   0  3
    4.9176   -1.2687    1.4230 C   0  0
    6.1854   -1.3960    1.1239 N   0  0
    6.3062   -0.7800   -0.0928 C   0  0
    7.4520   -0.5953   -0.8780 C   0  0
    7.3285    0.0911   -2.0990 C   0  0
    8.3858    0.3467   -2.9509 O   0  0
    9.6916   -0.0907   -2.5900 C   0  0
    6.0778    0.5622   -2.5108 C   0  0
    4.9155    0.3907   -1.7553 C   0  0
    5.0571   -0.2833   -0.5418 C   0  0
    4.0752   -1.7784    2.9755 S   0  0  2  0  0  0
    2.5838   -1.7201    2.6355 O   0  0
    4.4358   -0.2550    3.9867 C   0  0
    5.9179    0.1172    3.9681 C   0  0
    6.7194   -0.7528    4.6364 N   0  0
    8.0561   -0.5387    4.6193 C   0  0
    8.6486    0.5225    3.9337 C   0  0
   10.1581    0.7008    3.9602 C   0  0
    7.8175    1.4175    3.2426 C   0  0
    8.3778    2.4661    2.5524 O   0  0
    8.5979    2.2000    1.1719 C   0  0
    6.4219    1.2353    3.2746 C   0  0
    5.4914    2.2260    2.5795 C   0  0
   -5.7569    4.4136    0.6714 H   0  0
   -5.2804    3.1390    1.7871 H   0  0
   -5.5307    2.7778    0.0638 H   0  0
   -1.3164    4.2709    0.0865 H   0  0
    0.5714    2.6790    0.1533 H   0  0
   -4.1210    1.1655    1.0858 H   0  0
   -2.2704   -3.4681    0.3040 H   0  0
   -0.9877   -3.3071   -0.8782 H   0  0
   -2.2517   -7.6009    2.0791 H   0  0
    0.4811   -9.7022    0.9242 H   0  0
   -0.9489   -9.9877   -0.0605 H   0  0
   -1.1004   -9.7525    1.6924 H   0  0
    1.3057   -8.9274   -2.9645 H   0  0
    0.3020   -7.4840   -3.0543 H   0  0
   -0.3609   -8.9898   -2.4003 H   0  0
    1.7406   -5.7209   -1.8434 H   0  0
    1.2352   -4.2211   -1.1178 H   0  0
    0.3053   -4.8793   -2.4646 H   0  0
    8.4032   -0.9705   -0.5322 H   0  0
   10.3964    0.1995   -3.3690 H   0  0
    9.7366   -1.1764   -2.4925 H   0  0
   10.0235    0.3673   -1.6569 H   0  0
    6.0045    1.0851   -3.4535 H   0  0
    3.9634    0.7696   -2.0964 H   0  0
    3.7906    0.5523    3.6445 H   0  0
    4.1386   -0.4574    5.0166 H   0  0
    8.6562   -1.2504    5.1674 H   0  0
   10.4139    1.7485    4.1217 H   0  0
   10.5966    0.3901    3.0116 H   0  0
   10.6180    0.1324    4.7695 H   0  0
    9.0746    3.0631    0.7081 H   0  0
    7.6629    2.0141    0.6414 H   0  0
    9.2544    1.3405    1.0259 H   0  0
    6.0125    3.0965    2.1819 H   0  0
    4.7487    2.6002    3.2844 H   0  0
    4.9566    1.7436    1.7625 H   0  0
   -2.3727   -5.3470    1.6699 H   0  0
  1  2  1  0
  1 50  1  0
  1 51  1  0
  1 52  1  0
  2  3  1  0
  3  4  2  0
  3  8  1  0
  4  5  1  0
  4 53  1  0
  5  6  2  0
  5 54  1  0
  6  7  1  0
  6 24  1  0
  7  8  2  0
  7  9  1  0
  8 55  1  0
  9 10  1  0
 10 11  1  0
 10 24  2  0
 11 12  2  0
 11 13  1  0
 13 14  1  0
 13 56  1  0
 13 57  1  0
 14 15  4  0
 14 22  4  0
 15 16  4  0
 15 86  1  0
 16 17  4  0
 16 58  1  0
 17 18  1  0
 17 19  4  0
 18 59  1  0
 18 60  1  0
 18 61  1  0
 19 20  1  0
 19 22  4  0
 20 21  1  0
 21 62  1  0
 21 63  1  0
 21 64  1  0
 22 23  1  0
 23 65  1  0
 23 66  1  0
 23 67  1  0
 24 25  1  0
 25 26  1  0
 26 27  2  0
 26 36  1  0
 27 28  1  0
 27 37  1  0
 28 29  1  0
 29 30  2  0
 29 36  1  0
 30 31  1  0
 30 68  1  0
 31 32  1  0
 31 34  2  0
 32 33  1  0
 33 69  1  0
 33 70  1  0
 33 71  1  0
 34 35  1  0
 34 72  1  0
 35 36  2  0
 35 73  1  0
 37 38  2  0
 37 39  1  0
 39 40  1  0
 39 74  1  0
 39 75  1  0
 40 41  2  0
 40 48  1  0
 41 42  1  0
 42 43  2  0
 42 76  1  0
 43 44  1  0
 43 45  1  0
 44 77  1  0
 44 78  1  0
 44 79  1  0
 45 46  1  0
 45 48  2  0
 46 47  1  0
 47 80  1  0
 47 81  1  0
 47 82  1  0
 48 49  1  0
 49 83  1  0
 49 84  1  0
 49 85  1  0
M  CHG  2  24   1  26   1
M  END
> <Mol2_MolInfo_Name>
10283

> <Mol2_MolInfo_Type>
SMALL

> <Mol2_MolInfo_Charge>
USER_CHARGES

> <Mol2_Substructures>
     1 UNK         1 GROUP             0       ****    0 ROOT    

> <Name>
10283

$$$$
10283
  SciTegic06232017503D

 86 91  0  0  0  0            999 V2000
   -3.4313    5.6521    1.3271 C   0  0
   -3.6322    4.2435    1.3012 O   0  0
   -2.6164    3.4210    0.8536 C   0  0
   -1.3878    3.8842    0.3487 C   0  0
   -0.3828    3.0197   -0.0922 C   0  0
   -0.6461    1.6522    0.0031 C   0  0
   -1.8754    1.1544    0.5003 C   0  0
   -2.8675    2.0484    0.9233 C   0  0
   -1.8910   -0.2136    0.4953 N   0  0
   -0.7203   -0.5429    0.0145 C   0  0
   -0.0255   -2.2286   -0.1677 S   0  0  2  0  0  0
   -1.2219   -3.1331   -0.4684 O   0  0
    0.3929   -2.4583    1.6251 C   0  0
    1.0260   -3.8280    1.8287 C   0  0  1  0  0  0
    0.1857   -4.8611    2.0425 N   0  0
    0.5953   -6.1290    2.2245 C   0  0
    1.9596   -6.4269    2.1798 C   0  0  2  0  0  0
    2.4207   -7.8575    2.4087 C   0  0
    2.8800   -5.3896    1.9433 C   0  0  2  0  0  0
    4.2255   -5.6660    1.8920 O   0  0
    4.7071   -5.9855    0.5918 C   0  0
    2.4121   -4.0704    1.7766 C   0  0  1  0  0  0
    3.3859   -2.9226    1.5306 C   0  0
    0.0930    0.5243   -0.2808 N   0  3
    2.1781    0.3030   -0.2458 Mg  0  0
    4.2541    0.0459   -0.0974 N   0  3
    4.9674    0.3074    1.0567 C   0  0
    6.1451   -0.2639    1.0809 N   0  0
    6.2273   -0.9425   -0.1035 C   0  0
    7.2680   -1.7425   -0.5949 C   0  0
    7.1150   -2.3478   -1.8550 C   0  0
    8.0661   -3.1596   -2.4427 O   0  0
    9.2827   -3.4204   -1.7509 C   0  0
    5.9437   -2.1404   -2.5897 C   0  0
    4.8897   -1.3489   -2.1284 C   0  0
    5.0559   -0.7594   -0.8743 C   0  0
    4.2854    1.3796    2.4045 S   0  0  1  0  0  0
    5.1890    2.6133    2.4306 O   0  0
    2.6605    1.8659    1.6464 C   0  0
    1.9512    2.9360    2.4664 C   0  0
    1.1429    2.4467    3.4425 N   0  0
    0.4338    3.3261    4.1891 C   0  0
    0.4903    4.7075    3.9980 C   0  0
   -0.3285    5.6351    4.8811 C   0  0
    1.3249    5.2074    2.9867 C   0  0
    1.4140    6.5650    2.7877 O   0  0
    0.5581    7.0676    1.7699 C   0  0
    2.0773    4.3132    2.2024 C   0  0
    3.0025    4.8374    1.1071 C   0  0
   -4.3319    6.1368    1.7037 H   0  0
   -3.2354    6.0507    0.3307 H   0  0
   -2.6103    5.9218    1.9920 H   0  0
   -1.1868    4.9427    0.2903 H   0  0
    0.5550    3.3995   -0.4692 H   0  0
   -3.8097    1.6853    1.3077 H   0  0
    1.0634   -1.6610    1.9451 H   0  0
   -0.5133   -2.3696    2.2268 H   0  0
   -0.1860   -6.8556    2.3971 H   0  0
    3.3252   -7.8780    3.0179 H   0  0
    2.6377   -8.3485    1.4598 H   0  0
    1.6693   -8.4386    2.9451 H   0  0
    5.7789   -6.1772    0.6397 H   0  0
    4.5488   -5.1663   -0.1118 H   0  0
    4.2278   -6.8807    0.1933 H   0  0
    4.4255   -3.2398    1.4533 H   0  0
    3.3209   -2.1877    2.3335 H   0  0
    3.1257   -2.4173    0.6009 H   0  0
    8.1609   -1.8814   -0.0045 H   0  0
    9.9102   -4.0713   -2.3597 H   0  0
    9.1021   -3.9292   -0.8029 H   0  0
    9.8429   -2.5029   -1.5643 H   0  0
    5.8469   -2.6126   -3.5569 H   0  0
    3.9950   -1.2094   -2.7171 H   0  0
    2.7995    2.2048    0.6200 H   0  0
    2.0368    0.9727    1.6191 H   0  0
   -0.1946    2.8967    4.9559 H   0  0
    0.2876    6.4620    5.2354 H   0  0
   -0.7160    5.1213    5.7616 H   0  0
   -1.1622    6.0569    4.3196 H   0  0
    0.7403    8.1340    1.6394 H   0  0
   -0.4907    6.9422    2.0385 H   0  0
    0.7312    6.5818    0.8084 H   0  0
    3.3142    5.8649    1.2958 H   0  0
    2.5102    4.7909    0.1359 H   0  0
    3.9218    4.2577    1.0482 H   0  0
   -0.8067   -4.6715    2.0665 H   0  0
  1  2  1  0
  1 50  1  0
  1 51  1  0
  1 52  1  0
  2  3  1  0
  3  4  2  0
  3  8  1  0
  4  5  1  0
  4 53  1  0
  5  6  2  0
  5 54  1  0
  6  7  1  0
  6 24  1  0
  7  8  2  0
  7  9  1  0
  8 55  1  0
  9 10  1  0
 10 11  1  0
 10 24  2  0
 11 12  2  0
 11 13  1  0
 13 14  1  0
 13 56  1  0
 13 57  1  0
 14 15  4  0
 14 22  4  0
 15 16  4  0
 15 86  1  0
 16 17  4  0
 16 58  1  0
 17 18  1  0
 17 19  4  0
 18 59  1  0
 18 60  1  0
 18 61  1  0
 19 20  1  0
 19 22  4  0
 20 21  1  0
 21 62  1  0
 21 63  1  0
 21 64  1  0
 22 23  1  0
 23 65  1  0
 23 66  1  0
 23 67  1  0
 24 25  1  0
 25 26  1  0
 26 27  2  0
 26 36  1  0
 27 28  1  0
 27 37  1  0
 28 29  1  0
 29 30  2  0
 29 36  1  0
 30 31  1  0
 30 68  1  0
 31 32  1  0
 31 34  2  0
 32 33  1  0
 33 69  1  0
 33 70  1  0
 33 71  1  0
 34 35  1  0
 34 72  1  0
 35 36  2  0
 35 73  1  0
 37 38  2  0
 37 39  1  0
 39 40  1  0
 39 74  1  0
 39 75  1  0
 40 41  2  0
 40 48  1  0
 41 42  1  0
 42 43  2  0
 42 76  1  0
 43 44  1  0
 43 45  1  0
 44 77  1  0
 44 78  1  0
 44 79  1  0
 45 46  1  0
 45 48  2  0
 46 47  1  0
 47 80  1  0
 47 81  1  0
 47 82  1  0
 48 49  1  0
 49 83  1  0
 49 84  1  0
 49 85  1  0
M  CHG  2  24   1  26   1
M  END
> <Mol2_MolInfo_Name>
10283

> <Mol2_MolInfo_Type>
SMALL

> <Mol2_MolInfo_Charge>
USER_CHARGES

> <Mol2_Substructures>
     1 UNK         1 GROUP             0       ****    0 ROOT    

> <Name>
10283

$$$$
10283
  SciTegic06232017503D

 86 91  0  0  0  0            999 V2000
   -3.5835    5.3438    0.2261 C   0  0
   -3.6562    3.9220    0.2412 O   0  0
   -2.5162    3.1822   -0.0091 C   0  0
   -1.2541    3.7431   -0.2767 C   0  0
   -0.1224    2.9635   -0.5277 C   0  0
   -0.2990    1.5793   -0.5031 C   0  0
   -1.5550    0.9824   -0.2356 C   0  0
   -2.6700    1.7933    0.0141 C   0  0
   -1.4674   -0.3830   -0.2641 N   0  0
   -0.2122   -0.6186   -0.5517 C   0  0
    0.6213   -2.2502   -0.6772 S   0  0  1  0  0  0
    0.6164   -2.8145    0.7445 O   0  0
   -0.7180   -3.1277   -1.6194 C   0  0
   -0.3540   -4.5970   -1.7929 C   0  0  1  0  0  0
    0.4613   -4.8997   -2.8238 N   0  0
    0.8768   -6.1470   -3.1054 C   0  0
    0.4688   -7.2100   -2.2966 C   0  0  2  0  0  0
    0.9133   -8.6221   -2.6456 C   0  0
   -0.3718   -6.9502   -1.1977 C   0  0  2  0  0  0
   -0.7902   -7.9791   -0.3873 O   0  0
    0.1326   -8.3303    0.6369 C   0  0
   -0.8012   -5.6309   -0.9467 C   0  0  1  0  0  0
   -1.7307   -5.3275    0.2260 C   0  0
    0.5537    0.5146   -0.6868 N   0  3
    2.6429    0.4686   -0.5273 Mg  0  0
    4.7247    0.3857   -0.2981 N   0  3
    5.3137   -0.1002    0.8434 C   0  0
    6.6142    0.0422    0.8710 N   0  0
    6.9086    0.6710   -0.3104 C   0  0
    8.1540    1.0786   -0.8083 C   0  0
    8.2048    1.7090   -2.0646 C   0  0
    9.3704    2.1538   -2.6590 O   0  0
   10.6086    1.9867   -1.9762 C   0  0
    7.0266    1.9166   -2.7888 C   0  0
    5.7697    1.5249   -2.3220 C   0  0
    5.7368    0.9011   -1.0741 C   0  0
    4.2388   -0.8978    2.1032 S   0  0  1  0  0  0
    5.1449   -1.1254    3.3146 O   0  0
    3.1965    0.5952    2.4776 C   0  0
    1.9959    0.1946    3.3256 C   0  0
    0.9372   -0.2513    2.6017 N   0  0
   -0.1815   -0.6292    3.2632 C   0  0
   -0.2934   -0.5898    4.6535 C   0  0
   -1.5968   -1.0012    5.3201 C   0  0
    0.8083   -0.1374    5.3990 C   0  0
    0.7306   -0.0735    6.7700 O   0  0
    1.0970   -1.2782    7.4311 C   0  0
    1.9767    0.2752    4.7303 C   0  0
    3.1826    0.7951    5.5079 C   0  0
   -4.5697    5.7563    0.4376 H   0  0
   -3.2717    5.7188   -0.7499 H   0  0
   -2.8994    5.7172    0.9897 H   0  0
   -1.1266    4.8148   -0.2942 H   0  0
    0.8368    3.4176   -0.7283 H   0  0
   -3.6356    1.3553    0.2209 H   0  0
   -1.6646   -3.0253   -1.0898 H   0  0
   -0.8490   -2.6531   -2.5931 H   0  0
    1.5167   -6.2463   -3.9708 H   0  0
    0.1427   -9.3511   -2.3924 H   0  0
    1.8284   -8.8813   -2.1128 H   0  0
    1.0928   -8.7234   -3.7170 H   0  0
   -0.2856   -9.1360    1.2399 H   0  0
    0.3314   -7.4881    1.3018 H   0  0
    1.0818   -8.6809    0.2300 H   0  0
   -1.9082   -6.1880    0.8704 H   0  0
   -2.6950   -4.9724   -0.1387 H   0  0
   -1.3089   -4.5414    0.8521 H   0  0
    9.0459    0.9035   -0.2261 H   0  0
   11.4148    2.3869   -2.5908 H   0  0
   10.8266    0.9337   -1.7915 H   0  0
   10.6178    2.5264   -1.0278 H   0  0
    7.0880    2.4021   -3.7521 H   0  0
    4.8762    1.6999   -2.9031 H   0  0
    3.8077    1.3438    2.9807 H   0  0
    2.8487    1.0536    1.5513 H   0  0
   -1.0024   -0.9686    2.6479 H   0  0
   -1.8117   -0.3623    6.1776 H   0  0
   -1.5434   -2.0341    5.6646 H   0  0
   -2.4414   -0.8991    4.6371 H   0  0
    1.0328   -1.1317    8.5091 H   0  0
    2.1219   -1.5706    7.1967 H   0  0
    0.4330   -2.1028    7.1681 H   0  0
    3.0519    0.7448    6.5884 H   0  0
    3.3834    1.8333    5.2426 H   0  0
    4.0713    0.2156    5.2593 H   0  0
    0.7726   -4.1473   -3.4217 H   0  0
  1  2  1  0
  1 50  1  0
  1 51  1  0
  1 52  1  0
  2  3  1  0
  3  4  2  0
  3  8  1  0
  4  5  1  0
  4 53  1  0
  5  6  2  0
  5 54  1  0
  6  7  1  0
  6 24  1  0
  7  8  2  0
  7  9  1  0
  8 55  1  0
  9 10  1  0
 10 11  1  0
 10 24  2  0
 11 12  2  0
 11 13  1  0
 13 14  1  0
 13 56  1  0
 13 57  1  0
 14 15  4  0
 14 22  4  0
 15 16  4  0
 15 86  1  0
 16 17  4  0
 16 58  1  0
 17 18  1  0
 17 19  4  0
 18 59  1  0
 18 60  1  0
 18 61  1  0
 19 20  1  0
 19 22  4  0
 20 21  1  0
 21 62  1  0
 21 63  1  0
 21 64  1  0
 22 23  1  0
 23 65  1  0
 23 66  1  0
 23 67  1  0
 24 25  1  0
 25 26  1  0
 26 27  2  0
 26 36  1  0
 27 28  1  0
 27 37  1  0
 28 29  1  0
 29 30  2  0
 29 36  1  0
 30 31  1  0
 30 68  1  0
 31 32  1  0
 31 34  2  0
 32 33  1  0
 33 69  1  0
 33 70  1  0
 33 71  1  0
 34 35  1  0
 34 72  1  0
 35 36  2  0
 35 73  1  0
 37 38  2  0
 37 39  1  0
 39 40  1  0
 39 74  1  0
 39 75  1  0
 40 41  2  0
 40 48  1  0
 41 42  1  0
 42 43  2  0
 42 76  1  0
 43 44  1  0
 43 45  1  0
 44 77  1  0
 44 78  1  0
 44 79  1  0
 45 46  1  0
 45 48  2  0
 46 47  1  0
 47 80  1  0
 47 81  1  0
 47 82  1  0
 48 49  1  0
 49 83  1  0
 49 84  1  0
 49 85  1  0
M  CHG  2  24   1  26   1
M  END
> <Mol2_MolInfo_Name>
10283

> <Mol2_MolInfo_Type>
SMALL

> <Mol2_MolInfo_Charge>
USER_CHARGES

> <Mol2_Substructures>
     1 UNK         1 GROUP             0       ****    0 ROOT    

> <Name>
10283

$$$$
10330
  SciTegic06232017503D

 44 46  0  0  0  0            999 V2000
   -4.8835   -4.7311    1.5154 O   0  0
   -4.1853   -3.8165    0.7676 C   0  0
   -3.5570   -2.7509    1.4059 C   0  0
   -2.8306   -1.7924    0.6871 C   0  0
   -2.1042   -0.6786    1.4386 C   0  0
   -0.5667   -0.6892    1.3405 C   0  0
    0.0141   -0.1482    0.0111 N   0  3  1  0  0  0
    1.5613   -0.0753    0.0555 C   0  0
    2.1081    0.8617    1.1172 C   0  0
    2.8150    0.4712    2.1894 C   0  0
   -0.4471   -0.8592   -1.2831 C   0  0
   -1.9774   -0.8251   -1.5118 C   0  0  1  0  0  0
   -2.3347   -0.7729   -3.0075 C   0  0
   -3.3234    0.1126   -3.4525 C   0  0
   -3.6465    0.1822   -4.8048 C   0  0
   -2.9766   -0.6290   -5.7172 C   0  0
   -1.9857   -1.5089   -5.2891 C   0  0
   -1.6628   -1.5792   -3.9367 C   0  0
   -2.7329   -1.9057   -0.7171 C   0  0
   -3.3708   -2.9906   -1.3434 C   0  0
   -4.0892   -3.9386   -0.6184 C   0  0
   -4.6931   -4.9767   -1.2830 O   0  0
   -4.8744   -4.5373    2.4553 H   0  0
   -3.6265   -2.6726    2.4816 H   0  0
   -2.5183    0.2931    1.1666 H   0  0
   -2.3501   -0.7798    2.4970 H   0  0
   -0.1654   -0.0160    2.0980 H   0  0
   -0.1368   -1.6806    1.4940 H   0  0
    1.9013   -1.1043    0.1918 H   0  0
    1.8851    0.2753   -0.9254 H   0  0
    1.9087    1.9139    0.9732 H   0  0
    3.0393   -0.5706    2.3675 H   0  0
    3.1800    1.1924    2.9061 H   0  0
    0.0611   -0.2963   -2.0685 H   0  0
   -0.0344   -1.8694   -1.2509 H   0  0
   -2.3225    0.1357   -1.1256 H   0  0
   -3.8486    0.7459   -2.7521 H   0  0
   -4.4134    0.8626   -5.1449 H   0  0
   -3.2276   -0.5746   -6.7665 H   0  0
   -1.4700   -2.1340   -6.0033 H   0  0
   -0.8955   -2.2676   -3.6137 H   0  0
   -3.3198   -3.1079   -2.4152 H   0  0
   -4.5657   -4.9432   -2.2337 H   0  0
   -0.3083    0.8059   -0.0706 H   0  0
  1  2  1  0
  1 23  1  0
  2  3  2  0
  2 21  1  0
  3  4  1  0
  3 24  1  0
  4  5  1  0
  4 19  2  0
  5  6  1  0
  5 25  1  0
  5 26  1  0
  6  7  1  0
  6 27  1  0
  6 28  1  0
  7  8  1  0
  7 11  1  0
  7 44  1  0
  8  9  1  0
  8 29  1  0
  8 30  1  0
  9 10  2  0
  9 31  1  0
 10 32  1  0
 10 33  1  0
 11 12  1  0
 11 34  1  0
 11 35  1  0
 12 13  1  0
 12 19  1  0
 12 36  1  0
 13 14  2  0
 13 18  1  0
 14 15  1  0
 14 37  1  0
 15 16  2  0
 15 38  1  0
 16 17  1  0
 16 39  1  0
 17 18  2  0
 17 40  1  0
 18 41  1  0
 19 20  1  0
 20 21  2  0
 20 42  1  0
 21 22  1  0
 22 43  1  0
M  CHG  1   7   1
M  END
> <Mol2_MolInfo_Name>
10330

> <Mol2_MolInfo_Type>
SMALL

> <Mol2_MolInfo_Charge>
USER_CHARGES

> <Mol2_Substructures>
     1 UNK         1 GROUP             0       ****    0 ROOT    

> <Name>
10330

$$$$
10330
  SciTegic06232017503D

 44 46  0  0  0  0            999 V2000
   -4.7685    3.4304   -1.5987 O   0  0
   -4.1184    2.5111   -0.8148 C   0  0
   -3.4995    1.4185   -1.4161 C   0  0
   -2.8253    0.4571   -0.6549 C   0  0
   -2.1061   -0.7054   -1.3433 C   0  0
   -0.5648   -0.7433   -1.2130 C   0  0
    0.0203   -0.0340    0.0328 N   0  3  2  0  0  0
    1.5696    0.0030   -0.0120 C   0  0
    2.2317    1.1096    0.7991 C   0  0
    1.6272    2.1792    1.3451 C   0  0
   -0.5012   -0.5257    1.4077 C   0  0
   -2.0450   -0.4929    1.5756 C   0  0  1  0  0  0
   -2.4713   -0.5923    3.0506 C   0  0
   -3.3688   -1.5907    3.4496 C   0  0
   -3.7461   -1.7046    4.7849 C   0  0
   -3.2226   -0.8238    5.7276 C   0  0
   -2.3245    0.1698    5.3468 C   0  0
   -1.9472    0.2834    4.0117 C   0  0
   -2.7629    0.5977    0.7516 C   0  0
   -3.3935    1.7060    1.3395 C   0  0
   -4.0646    2.6564    0.5723 C   0  0
   -4.6654    3.7217    1.1952 O   0  0
   -5.1657    4.1380   -1.0851 H   0  0
   -3.5379    1.3194   -2.4917 H   0  0
   -2.5424   -1.6415   -0.9948 H   0  0
   -2.3511   -0.7093   -2.4067 H   0  0
   -0.1599   -1.7565   -1.2266 H   0  0
   -0.1273   -0.1911   -2.0464 H   0  0
    1.8954   -0.9850    0.3173 H   0  0
    1.8545    0.1278   -1.0575 H   0  0
    3.2982    1.0019    0.9359 H   0  0
    0.5654    2.3500    1.2430 H   0  0
    2.1955    2.9068    1.9064 H   0  0
   -0.0922   -1.5283    1.5445 H   0  0
   -0.0120    0.1393    2.1165 H   0  0
   -2.3874   -1.4345    1.1475 H   0  0
   -3.7808   -2.2807    2.7273 H   0  0
   -4.4412   -2.4739    5.0881 H   0  0
   -3.5153   -0.9122    6.7636 H   0  0
   -1.9231    0.8495    6.0841 H   0  0
   -1.2574    1.0646    3.7286 H   0  0
   -3.3725    1.8395    2.4100 H   0  0
   -4.5735    3.7018    2.1506 H   0  0
   -0.2801    0.9273   -0.0498 H   0  0
  1  2  1  0
  1 23  1  0
  2  3  2  0
  2 21  1  0
  3  4  1  0
  3 24  1  0
  4  5  1  0
  4 19  2  0
  5  6  1  0
  5 25  1  0
  5 26  1  0
  6  7  1  0
  6 27  1  0
  6 28  1  0
  7  8  1  0
  7 11  1  0
  7 44  1  0
  8  9  1  0
  8 29  1  0
  8 30  1  0
  9 10  2  0
  9 31  1  0
 10 32  1  0
 10 33  1  0
 11 12  1  0
 11 34  1  0
 11 35  1  0
 12 13  1  0
 12 19  1  0
 12 36  1  0
 13 14  2  0
 13 18  1  0
 14 15  1  0
 14 37  1  0
 15 16  2  0
 15 38  1  0
 16 17  1  0
 16 39  1  0
 17 18  2  0
 17 40  1  0
 18 41  1  0
 19 20  1  0
 20 21  2  0
 20 42  1  0
 21 22  1  0
 22 43  1  0
M  CHG  1   7   1
M  END
> <Mol2_MolInfo_Name>
10330

> <Mol2_MolInfo_Type>
SMALL

> <Mol2_MolInfo_Charge>
USER_CHARGES

> <Mol2_Substructures>
     1 UNK         1 GROUP             0       ****    0 ROOT    

> <Name>
10330

$$$$
10330
  SciTegic06232017503D

 44 46  0  0  0  0            999 V2000
   -4.8070    3.4433    1.5844 O   0  0
   -4.1468    2.5284    0.8028 C   0  0
   -3.5243    1.4389    1.4070 C   0  0
   -2.8415    0.4804    0.6496 C   0  0
   -2.1356   -0.6889    1.3400 C   0  0
   -0.5964   -0.7777    1.1936 C   0  0
    0.0203   -0.0362   -0.0193 N   0  3  1  0  0  0
    1.5667   -0.0651    0.0583 C   0  0
    2.2566    0.8628   -0.9248 C   0  0
    3.0376    0.4564   -1.9379 C   0  0
   -0.4984   -0.4405   -1.4237 C   0  0
   -2.0418   -0.4614   -1.5753 C   0  0  2  0  0  0
   -2.4848   -0.5876   -3.0432 C   0  0
   -3.3822   -1.5977   -3.4122 C   0  0
   -3.7774   -1.7377   -4.7397 C   0  0
   -3.2719   -0.8710   -5.7051 C   0  0
   -2.3738    0.1335   -5.3545 C   0  0
   -1.9779    0.2728   -4.0271 C   0  0
   -2.7734    0.6215   -0.7560 C   0  0
   -3.4071    1.7255   -1.3478 C   0  0
   -4.0879    2.6724   -0.5846 C   0  0
   -4.6926    3.7320   -1.2135 O   0  0
   -4.7853    3.2288    2.5197 H   0  0
   -3.5689    1.3366    2.4821 H   0  0
   -2.3687   -0.6779    2.4061 H   0  0
   -2.6021   -1.6159    1.0062 H   0  0
   -0.1338   -0.2869    2.0515 H   0  0
   -0.2333   -1.8063    1.1576 H   0  0
    1.8293    0.2312    1.0748 H   0  0
    1.8480   -1.1099   -0.0893 H   0  0
    2.0989    1.9211   -0.7731 H   0  0
    3.2236   -0.5923   -2.1207 H   0  0
    3.5038    1.1709   -2.6008 H   0  0
   -0.0525    0.3098   -2.0748 H   0  0
   -0.0480   -1.4096   -1.6458 H   0  0
   -2.3480   -1.4104   -1.1367 H   0  0
   -3.7805   -2.2768   -2.6722 H   0  0
   -4.4728   -2.5155   -5.0194 H   0  0
   -3.5790   -0.9793   -6.7350 H   0  0
   -1.9871    0.8024   -6.1094 H   0  0
   -1.2880    1.0623   -3.7690 H   0  0
   -3.3809    1.8581   -2.4184 H   0  0
   -4.5952    3.7117   -2.1682 H   0  0
   -0.2465    0.9310    0.1013 H   0  0
  1  2  1  0
  1 23  1  0
  2  3  2  0
  2 21  1  0
  3  4  1  0
  3 24  1  0
  4  5  1  0
  4 19  2  0
  5  6  1  0
  5 25  1  0
  5 26  1  0
  6  7  1  0
  6 27  1  0
  6 28  1  0
  7  8  1  0
  7 11  1  0
  7 44  1  0
  8  9  1  0
  8 29  1  0
  8 30  1  0
  9 10  2  0
  9 31  1  0
 10 32  1  0
 10 33  1  0
 11 12  1  0
 11 34  1  0
 11 35  1  0
 12 13  1  0
 12 19  1  0
 12 36  1  0
 13 14  2  0
 13 18  1  0
 14 15  1  0
 14 37  1  0
 15 16  2  0
 15 38  1  0
 16 17  1  0
 16 39  1  0
 17 18  2  0
 17 40  1  0
 18 41  1  0
 19 20  1  0
 20 21  2  0
 20 42  1  0
 21 22  1  0
 22 43  1  0
M  CHG  1   7   1
M  END
> <Mol2_MolInfo_Name>
10330

> <Mol2_MolInfo_Type>
SMALL

> <Mol2_MolInfo_Charge>
USER_CHARGES

> <Mol2_Substructures>
     1 UNK         1 GROUP             0       ****    0 ROOT    

> <Name>
10330

$$$$
10330
  SciTegic06232017503D

 44 46  0  0  0  0            999 V2000
   -4.8543   -4.7761   -1.4910 O   0  0
   -4.1697   -3.8433   -0.7536 C   0  0
   -3.5902   -2.7543   -1.3980 C   0  0
   -2.8778   -1.7785   -0.6883 C   0  0
   -2.1965   -0.6406   -1.4462 C   0  0
   -0.6572   -0.6117   -1.3794 C   0  0
   -0.0598   -0.0663   -0.0587 N   0  3  2  0  0  0
    1.4859    0.0355   -0.1270 C   0  0
    2.0111    0.9619   -1.2103 C   0  0
    2.5504    2.1708   -0.9880 C   0  0
   -0.4838   -0.7897    1.2423 C   0  0
   -2.0105   -0.7972    1.4972 C   0  0  2  0  0  0
   -2.3458   -0.7600    2.9984 C   0  0
   -3.3582    0.0895    3.4604 C   0  0
   -3.6653    0.1427    4.8173 C   0  0
   -2.9560   -0.6494    5.7167 C   0  0
   -1.9412   -1.4927    5.2715 C   0  0
   -1.6339   -1.5459    3.9148 C   0  0
   -2.7479   -1.8971    0.7127 C   0  0
   -3.3364   -3.0061    1.3453 C   0  0
   -4.0390   -3.9722    0.6286 C   0  0
   -4.5938   -5.0359    1.2956 O   0  0
   -5.2094   -5.4856   -0.9499 H   0  0
   -3.6874   -2.6731   -2.4714 H   0  0
   -2.4617   -0.7418   -2.4998 H   0  0
   -2.6299    0.3185   -1.1597 H   0  0
   -0.2044   -1.5898   -1.5514 H   0  0
   -0.2932    0.0784   -2.1398 H   0  0
    1.8007    0.3976    0.8535 H   0  0
    1.8584   -0.9819   -0.2584 H   0  0
    1.9530    0.5964   -2.2254 H   0  0
    2.6377    2.5748    0.0104 H   0  0
    2.9138    2.7752   -1.8065 H   0  0
   -0.0463   -1.7892    1.2023 H   0  0
    0.0218   -0.2151    2.0207 H   0  0
   -2.3882    0.1552    1.1207 H   0  0
   -3.9142    0.7065    2.7693 H   0  0
   -4.4504    0.7951    5.1707 H   0  0
   -3.1946   -0.6085    6.7694 H   0  0
   -1.3958   -2.1032    5.9761 H   0  0
   -0.8481   -2.2063    3.5783 H   0  0
   -3.2569   -3.1290    2.4147 H   0  0
   -4.4397   -5.0102    2.2428 H   0  0
   -0.3979    0.8814    0.0330 H   0  0
  1  2  1  0
  1 23  1  0
  2  3  2  0
  2 21  1  0
  3  4  1  0
  3 24  1  0
  4  5  1  0
  4 19  2  0
  5  6  1  0
  5 25  1  0
  5 26  1  0
  6  7  1  0
  6 27  1  0
  6 28  1  0
  7  8  1  0
  7 11  1  0
  7 44  1  0
  8  9  1  0
  8 29  1  0
  8 30  1  0
  9 10  2  0
  9 31  1  0
 10 32  1  0
 10 33  1  0
 11 12  1  0
 11 34  1  0
 11 35  1  0
 12 13  1  0
 12 19  1  0
 12 36  1  0
 13 14  2  0
 13 18  1  0
 14 15  1  0
 14 37  1  0
 15 16  2  0
 15 38  1  0
 16 17  1  0
 16 39  1  0
 17 18  2  0
 17 40  1  0
 18 41  1  0
 19 20  1  0
 20 21  2  0
 20 42  1  0
 21 22  1  0
 22 43  1  0
M  CHG  1   7   1
M  END
> <Mol2_MolInfo_Name>
10330

> <Mol2_MolInfo_Type>
SMALL

> <Mol2_MolInfo_Charge>
USER_CHARGES

> <Mol2_Substructures>
     1 UNK         1 GROUP             0       ****    0 ROOT    

> <Name>
10330

$$$$
10330
  SciTegic06232017503D

 43 45  0  0  0  0            999 V2000
   -4.9197    3.3851    3.6547 O   0  0
   -4.1927    2.3490    3.1239 C   0  0
   -3.5569    2.5197    1.8977 C   0  0
   -2.8025    1.4937    1.3131 C   0  0
   -2.0906    1.7556   -0.0162 C   0  0
   -0.5581    1.5931   -0.0185 C   0  0
   -0.0253    0.2326    0.0032 N   0  0
    1.3540    0.1119   -0.4756 C   0  0
    1.7771   -1.2843   -0.8962 C   0  0
    2.8394   -1.9388   -0.4027 C   0  0
   -0.3854   -0.5855    1.1617 C   0  0
   -1.8945   -0.8949    1.3229 C   0  0  1  0  0  0
   -2.1266   -2.2842    1.9426 C   0  0
   -3.0290   -3.1718    1.3451 C   0  0
   -3.2288   -4.4391    1.8862 C   0  0
   -2.5217   -4.8235    3.0228 C   0  0
   -1.6148   -3.9531    3.6220 C   0  0
   -1.4145   -2.6862    3.0807 C   0  0
   -2.6834    0.2530    1.9825 C   0  0
   -3.3318    0.1017    3.2207 C   0  0
   -4.0770    1.1305    3.7917 C   0  0
   -4.6881    0.9235    5.0031 O   0  0
   -4.9241    4.1663    3.0972 H   0  0
   -3.6454    3.4712    1.3932 H   0  0
   -2.5515    1.1601   -0.8053 H   0  0
   -2.2970    2.7866   -0.3073 H   0  0
   -0.2279    2.0483   -0.9535 H   0  0
   -0.0936    2.1944    0.7646 H   0  0
    1.4078    0.7001   -1.3928 H   0  0
    2.0534    0.5414    0.2436 H   0  0
    1.1573   -1.7678   -1.6375 H   0  0
    3.4794   -1.4910    0.3435 H   0  0
    3.0827   -2.9355   -0.7407 H   0  0
    0.1044   -1.5498    1.0231 H   0  0
    0.0493   -0.1692    2.0718 H   0  0
   -2.2989   -0.9785    0.3117 H   0  0
   -3.5798   -2.8822    0.4620 H   0  0
   -3.9278   -5.1215    1.4256 H   0  0
   -2.6766   -5.8068    3.4422 H   0  0
   -1.0680   -4.2599    4.5014 H   0  0
   -0.7102   -2.0157    3.5511 H   0  0
   -3.2692   -0.8316    3.7592 H   0  0
   -4.5351    0.0439    5.3550 H   0  0
  1  2  1  0
  1 23  1  0
  2  3  2  0
  2 21  1  0
  3  4  1  0
  3 24  1  0
  4  5  1  0
  4 19  2  0
  5  6  1  0
  5 25  1  0
  5 26  1  0
  6  7  1  0
  6 27  1  0
  6 28  1  0
  7  8  1  0
  7 11  1  0
  8  9  1  0
  8 29  1  0
  8 30  1  0
  9 10  2  0
  9 31  1  0
 10 32  1  0
 10 33  1  0
 11 12  1  0
 11 34  1  0
 11 35  1  0
 12 13  1  0
 12 19  1  0
 12 36  1  0
 13 14  2  0
 13 18  1  0
 14 15  1  0
 14 37  1  0
 15 16  2  0
 15 38  1  0
 16 17  1  0
 16 39  1  0
 17 18  2  0
 17 40  1  0
 18 41  1  0
 19 20  1  0
 20 21  2  0
 20 42  1  0
 21 22  1  0
 22 43  1  0
M  END
> <Mol2_MolInfo_Name>
10330

> <Mol2_MolInfo_Type>
SMALL

> <Mol2_MolInfo_Charge>
USER_CHARGES

> <Mol2_Substructures>
     1 UNK         1 GROUP             0       ****    0 ROOT    

> <Name>
10330

$$$$
10330
  SciTegic06232017503D

 43 45  0  0  0  0            999 V2000
   -5.1889    3.3241   -3.3235 O   0  0
   -4.3833    2.3029   -2.8852 C   0  0
   -3.6342    2.4754   -1.7248 C   0  0
   -2.7955    1.4645   -1.2366 C   0  0
   -1.9513    1.7277    0.0121 C   0  0
   -0.4238    1.6161   -0.1631 C   0  0
    0.1547    0.2771   -0.2671 N   0  0
    1.5877    0.2354    0.0467 C   0  0
    2.1969   -1.1400    0.2687 C   0  0
    2.7393   -1.5539    1.4243 C   0  0
   -0.3184   -0.5483   -1.3810 C   0  0
   -1.8287   -0.8939   -1.3740 C   0  0  2  0  0  0
   -2.1070   -2.2848   -1.9712 C   0  0
   -2.9634   -3.1692   -1.3049 C   0  0
   -3.2077   -4.4365   -1.8272 C   0  0
   -2.5911   -4.8245   -3.0142 C   0  0
   -1.7318   -3.9568   -3.6834 C   0  0
   -1.4875   -2.6896   -3.1613 C   0  0
   -2.7105    0.2378   -1.9346 C   0  0
   -3.4715    0.0846   -3.1064 C   0  0
   -4.2983    1.0988   -3.5835 C   0  0
   -5.0173    0.8922   -4.7342 O   0  0
   -5.1607    4.0966   -2.7548 H   0  0
   -3.6980    3.4169   -1.1980 H   0  0
   -2.1573    2.7462    0.3448 H   0  0
   -2.3013    1.1043    0.8357 H   0  0
   -0.0744    2.2430   -0.9850 H   0  0
   -0.0031    2.0730    0.7342 H   0  0
    2.0961    0.6835   -0.8084 H   0  0
    1.8063    0.8529    0.9196 H   0  0
    2.1789   -1.8233   -0.5672 H   0  0
    2.7781   -0.9098    2.2907 H   0  0
    3.1527   -2.5473    1.5182 H   0  0
   -0.0005   -0.1201   -2.3328 H   0  0
    0.1991   -1.5030   -1.3056 H   0  0
   -2.1131   -0.9925   -0.3240 H   0  0
   -3.4452   -2.8760   -0.3834 H   0  0
   -3.8716   -5.1160   -1.3136 H   0  0
   -2.7801   -5.8078   -3.4188 H   0  0
   -1.2566   -4.2655   -4.6028 H   0  0
   -0.8210   -2.0214   -3.6870 H   0  0
   -3.4326   -0.8384   -3.6645 H   0  0
   -4.8708    0.0251   -5.1183 H   0  0
  1  2  1  0
  1 23  1  0
  2  3  2  0
  2 21  1  0
  3  4  1  0
  3 24  1  0
  4  5  1  0
  4 19  2  0
  5  6  1  0
  5 25  1  0
  5 26  1  0
  6  7  1  0
  6 27  1  0
  6 28  1  0
  7  8  1  0
  7 11  1  0
  8  9  1  0
  8 29  1  0
  8 30  1  0
  9 10  2  0
  9 31  1  0
 10 32  1  0
 10 33  1  0
 11 12  1  0
 11 34  1  0
 11 35  1  0
 12 13  1  0
 12 19  1  0
 12 36  1  0
 13 14  2  0
 13 18  1  0
 14 15  1  0
 14 37  1  0
 15 16  2  0
 15 38  1  0
 16 17  1  0
 16 39  1  0
 17 18  2  0
 17 40  1  0
 18 41  1  0
 19 20  1  0
 20 21  2  0
 20 42  1  0
 21 22  1  0
 22 43  1  0
M  END
> <Mol2_MolInfo_Name>
10330

> <Mol2_MolInfo_Type>
SMALL

> <Mol2_MolInfo_Charge>
USER_CHARGES

> <Mol2_Substructures>
     1 UNK         1 GROUP             0       ****    0 ROOT    

> <Name>
10330

$$$$
10385
  SciTegic06232017503D

 33 34  0  0  0  0            999 V2000
   -0.1236    0.0745   -0.3457 C   0  0
    1.3075    0.1910   -0.0286 N   0  0
    1.9738   -0.9283    0.3415 C   0  0
    1.4913   -2.0392    0.5793 O   0  0
    3.4687   -0.6371    0.3753 C   0  0  1  0  0  0
    3.6382    1.1288    0.6000 S   0  0
    1.9905    1.3848   -0.0469 C   0  0
    1.4834    2.5696   -0.4733 C   0  0
    2.1928    3.9390   -0.4881 C   0  0
    1.7829    4.7032   -1.3886 O   0  0
    3.0285    4.1401    0.4210 O   0  5
    4.1432   -1.5070    1.4765 N   0  3  1  0  0  0
    5.6795   -1.4954    1.2888 C   0  0
    6.3146   -2.4895    2.2769 C   0  0
    5.9160   -2.1931    3.7322 C   0  0
    4.3891   -2.1269    3.9020 C   0  0
    3.7467   -1.1245    2.9284 C   0  0
   -0.3100    0.4305   -1.3594 H   0  0
   -0.7071    0.6897    0.3400 H   0  0
   -0.5107   -0.9440   -0.2843 H   0  0
    3.9061   -0.9450   -0.5757 H   0  0
    0.4707    2.5755   -0.8490 H   0  0
    5.8844   -1.7732    0.2541 H   0  0
    6.0152   -0.4716    1.4612 H   0  0
    6.0156   -3.5048    2.0122 H   0  0
    7.4004   -2.4582    2.1794 H   0  0
    6.3298   -2.9557    4.3932 H   0  0
    6.3591   -1.2465    4.0460 H   0  0
    3.9555   -3.1157    3.7444 H   0  0
    4.1446   -1.8481    4.9276 H   0  0
    4.1010   -0.1086    3.1069 H   0  0
    2.6591   -1.1430    2.9971 H   0  0
    3.8470   -2.4606    1.3207 H   0  0
  1  2  1  0
  1 18  1  0
  1 19  1  0
  1 20  1  0
  2  3  1  0
  2  7  1  0
  3  4  2  0
  3  5  1  0
  5  6  1  0
  5 12  1  0
  5 21  1  0
  6  7  1  0
  7  8  2  0
  8  9  1  0
  8 22  1  0
  9 10  2  0
  9 11  1  0
 12 13  1  0
 12 17  1  0
 12 33  1  0
 13 14  1  0
 13 23  1  0
 13 24  1  0
 14 15  1  0
 14 25  1  0
 14 26  1  0
 15 16  1  0
 15 27  1  0
 15 28  1  0
 16 17  1  0
 16 29  1  0
 16 30  1  0
 17 31  1  0
 17 32  1  0
M  CHG  2  11  -1  12   1
M  END
> <Mol2_MolInfo_Name>
10385

> <Mol2_MolInfo_Type>
SMALL

> <Mol2_MolInfo_Charge>
USER_CHARGES

> <Mol2_Substructures>
     1 UNK         1 GROUP             0       ****    0 ROOT    

> <Name>
10385

$$$$
10385
  SciTegic06232017503D

 33 34  0  0  0  0            999 V2000
   -0.1235    0.0741    0.3443 C   0  0
    1.3078    0.1909    0.0285 N   0  0
    1.9743   -0.9283   -0.3416 C   0  0
    1.4920   -2.0393   -0.5800 O   0  0
    3.4692   -0.6372   -0.3748 C   0  0  2  0  0  0
    3.6390    1.1289   -0.5987 S   0  0
    1.9910    1.3847    0.0476 C   0  0
    1.4836    2.5694    0.4741 C   0  0
    2.1925    3.9391    0.4899 C   0  0
    1.7801    4.7038    1.3889 O   0  0
    3.0306    4.1400   -0.4170 O   0  5
    4.1433   -1.5068   -1.4765 N   0  3  1  0  0  0
    3.7473   -1.1229   -2.9282 C   0  0
    4.3888   -2.1253   -3.9022 C   0  0
    5.9157   -2.1924   -3.7326 C   0  0
    6.3139   -2.4906   -2.2774 C   0  0
    5.6796   -1.4970   -1.2883 C   0  0
   -0.3113    0.4310    1.3573 H   0  0
   -0.5101   -0.9444    0.2837 H   0  0
   -0.7063    0.6883   -0.3429 H   0  0
    3.9064   -0.9459    0.5761 H   0  0
    0.4708    2.5750    0.8492 H   0  0
    2.6596   -1.1403   -2.9972 H   0  0
    4.1024   -0.1073   -3.1059 H   0  0
    3.9546   -3.1139   -3.7449 H   0  0
    4.1442   -1.8462   -4.9275 H   0  0
    6.3291   -2.9545   -4.3943 H   0  0
    6.3594   -1.2458   -4.0455 H   0  0
    6.0142   -3.5060   -2.0139 H   0  0
    7.3999   -2.4600   -2.1799 H   0  0
    6.0163   -0.4731   -1.4594 H   0  0
    5.8836   -1.7765   -0.2539 H   0  0
    3.8454   -2.4601   -1.3216 H   0  0
  1  2  1  0
  1 18  1  0
  1 19  1  0
  1 20  1  0
  2  3  1  0
  2  7  1  0
  3  4  2  0
  3  5  1  0
  5  6  1  0
  5 12  1  0
  5 21  1  0
  6  7  1  0
  7  8  2  0
  8  9  1  0
  8 22  1  0
  9 10  2  0
  9 11  1  0
 12 13  1  0
 12 17  1  0
 12 33  1  0
 13 14  1  0
 13 23  1  0
 13 24  1  0
 14 15  1  0
 14 25  1  0
 14 26  1  0
 15 16  1  0
 15 27  1  0
 15 28  1  0
 16 17  1  0
 16 29  1  0
 16 30  1  0
 17 31  1  0
 17 32  1  0
M  CHG  2  11  -1  12   1
M  END
> <Mol2_MolInfo_Name>
10385

> <Mol2_MolInfo_Type>
SMALL

> <Mol2_MolInfo_Charge>
USER_CHARGES

> <Mol2_Substructures>
     1 UNK         1 GROUP             0       ****    0 ROOT    

> <Name>
10385

$$$$
10385
  SciTegic06232017503D

 32 33  0  0  0  0            999 V2000
   -0.1153    0.1074   -0.2963 C   0  0
    1.3302    0.1933   -0.0328 N   0  0
    1.9933   -0.9531    0.2545 C   0  0
    1.4979   -2.0782    0.3711 O   0  0
    3.4970   -0.7030    0.3738 C   0  0  1  0  0  0
    3.7166    1.0791    0.4221 S   0  0
    2.0251    1.3766   -0.0602 C   0  0
    1.5017    2.5835   -0.3969 C   0  0
    2.2266    3.9447   -0.4234 C   0  0
    1.7552    4.7448   -1.2607 O   0  0
    3.1334    4.1071    0.4229 O   0  5
    4.1556   -1.4867    1.4371 N   0  0
    3.7454   -1.1325    2.8097 C   0  0
    4.3759   -2.0689    3.8612 C   0  0
    5.9048   -2.1304    3.7342 C   0  0
    6.2989   -2.4566    2.2864 C   0  0
    5.6182   -1.5119    1.2738 C   0  0
   -0.3311    0.4694   -1.3019 H   0  0
   -0.6588    0.7345    0.4111 H   0  0
   -0.5258   -0.9005   -0.2192 H   0  0
    3.8934   -1.0160   -0.5941 H   0  0
    0.4607    2.6159   -0.6828 H   0  0
    3.9987   -0.0916    3.0159 H   0  0
    2.6602   -1.2037    2.8907 H   0  0
    4.1120   -1.7150    4.8583 H   0  0
    3.9319   -3.0627    3.7849 H   0  0
    6.3354   -1.1703    4.0233 H   0  0
    6.3146   -2.8741    4.4185 H   0  0
    7.3809   -2.3716    2.1814 H   0  0
    6.0696   -3.4939    2.0374 H   0  0
    5.8504   -1.8604    0.2664 H   0  0
    6.0192   -0.4997    1.3486 H   0  0
  1  2  1  0
  1 18  1  0
  1 19  1  0
  1 20  1  0
  2  3  1  0
  2  7  1  0
  3  4  2  0
  3  5  1  0
  5  6  1  0
  5 12  1  0
  5 21  1  0
  6  7  1  0
  7  8  2  0
  8  9  1  0
  8 22  1  0
  9 10  2  0
  9 11  1  0
 12 13  1  0
 12 17  1  0
 13 14  1  0
 13 23  1  0
 13 24  1  0
 14 15  1  0
 14 25  1  0
 14 26  1  0
 15 16  1  0
 15 27  1  0
 15 28  1  0
 16 17  1  0
 16 29  1  0
 16 30  1  0
 17 31  1  0
 17 32  1  0
M  CHG  1  11  -1
M  END
> <Mol2_MolInfo_Name>
10385

> <Mol2_MolInfo_Type>
SMALL

> <Mol2_MolInfo_Charge>
USER_CHARGES

> <Mol2_Substructures>
     1 UNK         1 GROUP             0       ****    0 ROOT    

> <Name>
10385

$$$$
10385
  SciTegic06232017503D

 32 33  0  0  0  0            999 V2000
   -0.1153    0.1082    0.2969 C   0  0
    1.3302    0.1927    0.0341 N   0  0
    1.9922   -0.9542   -0.2539 C   0  0
    1.4959   -2.0786   -0.3717 O   0  0
    3.4961   -0.7057   -0.3727 C   0  0  2  0  0  0
    3.7177    1.0759   -0.4197 S   0  0
    2.0263    1.3752    0.0615 C   0  0
    1.5037    2.5828    0.3972 C   0  0
    2.2291    3.9439    0.4227 C   0  0
    1.7538    4.7470    1.2554 O   0  0
    3.1384    4.1041   -0.4213 O   0  5
    4.1545   -1.4892   -1.4365 N   0  0
    3.7440   -1.1338   -2.8088 C   0  0
    4.3759   -2.0678   -3.8617 C   0  0
    5.9048   -2.1276   -3.7350 C   0  0
    6.2994   -2.4546   -2.2875 C   0  0
    5.6172   -1.5128   -1.2734 C   0  0
   -0.3316    0.4733    1.3013 H   0  0
   -0.5261   -0.8998    0.2225 H   0  0
   -0.6581    0.7334   -0.4125 H   0  0
    3.8910   -1.0196    0.5954 H   0  0
    0.4626    2.6161    0.6822 H   0  0
    2.6592   -1.2063   -2.8902 H   0  0
    3.9959   -0.0923   -3.0138 H   0  0
    3.9333   -3.0624   -3.7877 H   0  0
    4.1116   -1.7123   -4.8581 H   0  0
    6.3150   -2.8707   -4.4196 H   0  0
    6.3344   -1.1671   -4.0239 H   0  0
    6.0726   -3.4928   -2.0396 H   0  0
    7.3813   -2.3675   -2.1825 H   0  0
    6.0166   -0.5000   -1.3473 H   0  0
    5.8502   -1.8623   -0.2665 H   0  0
  1  2  1  0
  1 18  1  0
  1 19  1  0
  1 20  1  0
  2  3  1  0
  2  7  1  0
  3  4  2  0
  3  5  1  0
  5  6  1  0
  5 12  1  0
  5 21  1  0
  6  7  1  0
  7  8  2  0
  8  9  1  0
  8 22  1  0
  9 10  2  0
  9 11  1  0
 12 13  1  0
 12 17  1  0
 13 14  1  0
 13 23  1  0
 13 24  1  0
 14 15  1  0
 14 25  1  0
 14 26  1  0
 15 16  1  0
 15 27  1  0
 15 28  1  0
 16 17  1  0
 16 29  1  0
 16 30  1  0
 17 31  1  0
 17 32  1  0
M  CHG  1  11  -1
M  END
> <Mol2_MolInfo_Name>
10385

> <Mol2_MolInfo_Type>
SMALL

> <Mol2_MolInfo_Charge>
USER_CHARGES

> <Mol2_Substructures>
     1 UNK         1 GROUP             0       ****    0 ROOT    

> <Name>
10385

$$$$
10420
  SciTegic06232017503D

 55 57  0  0  0  0            999 V2000
    0.2210   -2.9185    1.7374 C   0  0
   -0.2356   -2.0680    0.6932 O   0  0
   -0.3979   -0.6904    1.0405 C   0  0  2  0  0  0
   -1.8870   -0.3747    1.3435 C   0  0  1  0  0  0
   -2.7651   -0.6168    0.0920 C   0  0
   -2.2847    0.2454   -1.0895 C   0  0
   -0.7780    0.0548   -1.3761 C   0  0  1  0  0  0
   -0.3662   -0.8260   -2.5155 C   0  0
   -0.3004    0.5793   -2.5856 O   0  0
    0.1220    0.2189   -0.1154 C   0  0  2  0  0  0
    1.6758    0.2310   -0.2905 C   0  0  1  0  0  0
    2.2359    1.5567   -0.8506 C   0  0
    2.4540   -0.4033    0.7014 O   0  0
    2.4096   -1.0623   -0.5374 C   0  0  2  0  0  0
    3.7084   -1.1278   -1.3597 C   0  0
    4.5731   -2.3208   -0.9887 C   0  0
    4.6831   -3.4941   -1.6481 C   0  0
    5.6172   -4.5882   -1.1599 C   0  0
    3.9008   -3.8578   -2.9026 C   0  0
   -2.3325   -1.1261    2.4770 O   0  0
   -3.3818   -0.6151    3.2175 C   0  0
   -4.0006    0.4362    3.0174 O   0  0
   -3.6032   -1.4973    4.2160 N   0  0
   -4.5360   -1.4190    5.1934 C   0  0
   -5.3487   -0.5004    5.3341 O   0  0
   -4.5408   -2.5781    6.1944 C   0  0
   -6.1761   -3.2508    6.4336 Cl  0  0
    0.3023   -3.9387    1.3628 H   0  0
   -0.4635   -2.9289    2.5855 H   0  0
    1.2080   -2.6149    2.0890 H   0  0
    0.1836   -0.4640    1.9380 H   0  0
   -1.9270    0.6856    1.6047 H   0  0
   -2.7116   -1.6646   -0.2074 H   0  0
   -3.8088   -0.3770    0.2983 H   0  0
   -2.8787    0.0241   -1.9775 H   0  0
   -2.4709    1.2974   -0.8685 H   0  0
    0.5893   -1.3472   -2.5179 H   0  0
   -1.1201   -1.3004   -3.1439 H   0  0
   -0.0956    1.2287    0.2370 H   0  0
    1.9907    1.6744   -1.9056 H   0  0
    3.3177    1.6307   -0.7518 H   0  0
    1.8237    2.4130   -0.3167 H   0  0
    1.8431   -1.9913   -0.5711 H   0  0
    3.4641   -1.1352   -2.4207 H   0  0
    4.3259   -0.2432   -1.2135 H   0  0
    5.1624   -2.1767   -0.0940 H   0  0
    6.3579   -4.8235   -1.9249 H   0  0
    5.0548   -5.4935   -0.9290 H   0  0
    6.1546   -4.2937   -0.2574 H   0  0
    4.5752   -3.9283   -3.7566 H   0  0
    3.1242   -3.1365   -3.1513 H   0  0
    3.4090   -4.8225   -2.7735 H   0  0
   -3.0029   -2.3081    4.2310 H   0  0
   -3.8925   -3.3973    5.8788 H   0  0
   -4.1854   -2.2270    7.1636 H   0  0
  1  2  1  0
  1 28  1  0
  1 29  1  0
  1 30  1  0
  2  3  1  0
  3  4  1  0
  3 10  1  0
  3 31  1  0
  4  5  1  0
  4 20  1  0
  4 32  1  0
  5  6  1  0
  5 33  1  0
  5 34  1  0
  6  7  1  0
  6 35  1  0
  6 36  1  0
  7  8  1  0
  7  9  1  0
  7 10  1  0
  8  9  1  0
  8 37  1  0
  8 38  1  0
 10 11  1  0
 10 39  1  0
 11 12  1  0
 11 13  1  0
 11 14  1  0
 12 40  1  0
 12 41  1  0
 12 42  1  0
 13 14  1  0
 14 15  1  0
 14 43  1  0
 15 16  1  0
 15 44  1  0
 15 45  1  0
 16 17  2  0
 16 46  1  0
 17 18  1  0
 17 19  1  0
 18 47  1  0
 18 48  1  0
 18 49  1  0
 19 50  1  0
 19 51  1  0
 19 52  1  0
 20 21  1  0
 21 22  2  0
 21 23  1  0
 23 24  1  0
 23 53  1  0
 24 25  2  0
 24 26  1  0
 26 27  1  0
 26 54  1  0
 26 55  1  0
M  END
> <Mol2_MolInfo_Name>
10420

> <Mol2_MolInfo_Type>
SMALL

> <Mol2_MolInfo_Charge>
USER_CHARGES

> <Mol2_Substructures>
     1 UNK         1 GROUP             0       ****    0 ROOT    

> <Name>
10420

$$$$
10420
  SciTegic06232017503D

 55 57  0  0  0  0            999 V2000
   -2.1130    0.3681   -2.2762 C   0  0
   -1.8001   -0.7797   -1.4965 O   0  0
   -0.4089   -1.0065   -1.2474 C   0  0  2  0  0  0
   -0.2172   -2.5328   -0.9983 C   0  0  1  0  0  0
   -0.9573   -2.9858    0.2790 C   0  0
   -0.5204   -2.1620    1.5053 C   0  0
   -0.6455   -0.6449    1.2459 C   0  0  1  0  0  0
   -1.8918    0.0603    1.6836 C   0  0
   -0.6659    0.2054    2.3608 O   0  0
    0.0895   -0.1562   -0.0329 C   0  0  1  0  0  0
    1.6402    0.0076    0.1122 C   0  0  1  0  0  0
    2.0599    1.2796    0.8811 C   0  0
    2.3916   -1.1548    0.3822 O   0  0
    2.5873   -0.6062   -0.8937 C   0  0  2  0  0  0
    3.9699   -0.0128   -1.2149 C   0  0
    4.9609   -1.0710   -1.6683 C   0  0
    5.1604   -1.5106   -2.9292 C   0  0
    6.2069   -2.5657   -3.2425 C   0  0
    4.3721   -1.0320   -4.1405 C   0  0
   -0.6671   -3.3309   -2.0992 O   0  0
    0.1809   -3.4793   -3.1819 C   0  0
    1.3130   -3.0044   -3.3221 O   0  0
   -0.4750   -4.2547   -4.0721 N   0  0
   -0.0360   -4.6702   -5.2831 C   0  0
    1.0549   -4.3843   -5.7854 O   0  0
   -1.0064   -5.5563   -6.0690 C   0  0
   -0.2373   -7.0748   -6.6031 Cl  0  0
   -3.1938    0.4353   -2.3983 H   0  0
   -1.6708    0.3039   -3.2714 H   0  0
   -1.7777    1.2914   -1.8043 H   0  0
    0.1213   -0.7193   -2.1569 H   0  0
    0.8410   -2.7459   -0.8410 H   0  0
   -2.0339   -2.8574    0.1557 H   0  0
   -0.7571   -4.0390    0.4794 H   0  0
   -1.1085   -2.4535    2.3767 H   0  0
    0.5131   -2.4004    1.7582 H   0  0
   -2.2498    0.9392    1.1471 H   0  0
   -2.6737   -0.4787    2.2192 H   0  0
   -0.2535    0.8594   -0.2295 H   0  0
    1.8774    2.1728    0.2835 H   0  0
    3.1109    1.2772    1.1645 H   0  0
    1.5009    1.3854    1.8095 H   0  0
    2.2022   -1.1955   -1.7204 H   0  0
    3.8639    0.7528   -1.9831 H   0  0
    4.4168    0.4931   -0.3615 H   0  0
    5.5595   -1.4921   -0.8730 H   0  0
    6.9458   -2.1717   -3.9407 H   0  0
    5.7394   -3.4443   -3.6882 H   0  0
    6.7376   -2.8915   -2.3468 H   0  0
    3.9314   -1.8822   -4.6625 H   0  0
    5.0289   -0.5048   -4.8328 H   0  0
    3.5556   -0.3596   -3.8813 H   0  0
   -1.3959   -4.5623   -3.7969 H   0  0
   -1.8879   -5.8229   -5.4838 H   0  0
   -1.3458   -5.0286   -6.9606 H   0  0
  1  2  1  0
  1 28  1  0
  1 29  1  0
  1 30  1  0
  2  3  1  0
  3  4  1  0
  3 10  1  0
  3 31  1  0
  4  5  1  0
  4 20  1  0
  4 32  1  0
  5  6  1  0
  5 33  1  0
  5 34  1  0
  6  7  1  0
  6 35  1  0
  6 36  1  0
  7  8  1  0
  7  9  1  0
  7 10  1  0
  8  9  1  0
  8 37  1  0
  8 38  1  0
 10 11  1  0
 10 39  1  0
 11 12  1  0
 11 13  1  0
 11 14  1  0
 12 40  1  0
 12 41  1  0
 12 42  1  0
 13 14  1  0
 14 15  1  0
 14 43  1  0
 15 16  1  0
 15 44  1  0
 15 45  1  0
 16 17  2  0
 16 46  1  0
 17 18  1  0
 17 19  1  0
 18 47  1  0
 18 48  1  0
 18 49  1  0
 19 50  1  0
 19 51  1  0
 19 52  1  0
 20 21  1  0
 21 22  2  0
 21 23  1  0
 23 24  1  0
 23 53  1  0
 24 25  2  0
 24 26  1  0
 26 27  1  0
 26 54  1  0
 26 55  1  0
M  END
> <Mol2_MolInfo_Name>
10420

> <Mol2_MolInfo_Type>
SMALL

> <Mol2_MolInfo_Charge>
USER_CHARGES

> <Mol2_Substructures>
     1 UNK         1 GROUP             0       ****    0 ROOT    

> <Name>
10420

$$$$
10433
  SciTegic06232017503D

 24 25  0  0  0  0            999 V2000
   -0.4126    2.0011    0.0767 Cl  0  0
   -0.1352    0.2444   -0.0032 C   0  0  1  0  0  0
   -1.0235   -0.5300    1.3342 Cl  0  0
   -0.7892   -0.3597   -1.5477 Cl  0  0
    1.6516   -0.0898    0.1221 S   0  0
    1.7590   -1.8343    0.0720 N   0  0
    1.8927   -2.5316   -1.0825 C   0  0
    2.0861   -2.0980   -2.2191 O   0  0
    1.7377   -3.9935   -0.6940 C   0  0  1  0  0  0
    2.3462   -5.0454   -1.6643 C   0  0
    3.7273   -5.5195   -1.2480 C   0  0
    4.3419   -5.1742   -0.1051 C   0  0
    3.7364   -4.2933    0.9739 C   0  0
    2.2174   -4.0117    0.7460 C   0  0  1  0  0  0
    1.8524   -2.5982    1.1910 C   0  0
    1.6781   -2.2525    2.3599 O   0  0
    0.6629   -4.1923   -0.7343 H   0  0
    1.7264   -5.9421   -1.6206 H   0  0
    2.2910   -4.7337   -2.7083 H   0  0
    4.2672   -6.1669   -1.9242 H   0  0
    5.3357   -5.5656    0.0590 H   0  0
    3.9266   -4.6629    1.9822 H   0  0
    4.3182   -3.3753    0.8639 H   0  0
    1.6215   -4.7477    1.2883 H   0  0
  1  2  1  0
  2  3  1  0
  2  4  1  0
  2  5  1  0
  5  6  1  0
  6  7  1  0
  6 15  1  0
  7  8  2  0
  7  9  1  0
  9 10  1  0
  9 14  1  0
  9 17  1  0
 10 11  1  0
 10 18  1  0
 10 19  1  0
 11 12  2  0
 11 20  1  0
 12 13  1  0
 12 21  1  0
 13 14  1  0
 13 22  1  0
 13 23  1  0
 14 15  1  0
 14 24  1  0
 15 16  2  0
M  END
> <Mol2_MolInfo_Name>
10433

> <Mol2_MolInfo_Type>
SMALL

> <Mol2_MolInfo_Charge>
USER_CHARGES

> <Mol2_Substructures>
     1 UNK         1 GROUP             0       ****    0 ROOT    

> <Name>
10433

$$$$
10433
  SciTegic06232017503D

 24 25  0  0  0  0            999 V2000
   -0.3701    2.0482    0.0216 Cl  0  0
   -0.1152    0.2866    0.0540 C   0  0  1  0  0  0
   -0.7980   -0.3539    1.5712 Cl  0  0
   -0.9941   -0.4378   -1.3173 Cl  0  0
    1.6690   -0.0654   -0.0577 S   0  0
    1.7562   -1.8107   -0.0408 N   0  0
    1.8500   -2.5563   -1.1771 C   0  0
    1.6868   -2.2041   -2.3455 O   0  0
    2.2216   -3.9514   -0.7117 C   0  0  2  0  0  0
    1.8049   -5.1954   -1.5312 C   0  0
    1.9881   -6.4459   -0.6633 C   0  0
    2.2116   -6.4195    0.6718 C   0  0
    2.2271   -5.1410    1.5176 C   0  0
    1.6573   -3.9751    0.6754 C   0  0  1  0  0  0
    1.8587   -2.5364    1.1067 C   0  0
    2.0587   -2.1424    2.2559 O   0  0
    3.3153   -3.9857   -0.7092 H   0  0
    0.7480   -5.1401   -1.7960 H   0  0
    2.3566   -5.2513   -2.4704 H   0  0
    1.9690   -7.4121   -1.1468 H   0  0
    2.3587   -7.3658    1.1720 H   0  0
    1.6838   -5.2509    2.4570 H   0  0
    3.2676   -4.9468    1.7820 H   0  0
    0.5764   -4.1455    0.6819 H   0  0
  1  2  1  0
  2  3  1  0
  2  4  1  0
  2  5  1  0
  5  6  1  0
  6  7  1  0
  6 15  1  0
  7  8  2  0
  7  9  1  0
  9 10  1  0
  9 14  1  0
  9 17  1  0
 10 11  1  0
 10 18  1  0
 10 19  1  0
 11 12  2  0
 11 20  1  0
 12 13  1  0
 12 21  1  0
 13 14  1  0
 13 22  1  0
 13 23  1  0
 14 15  1  0
 14 24  1  0
 15 16  2  0
M  END
> <Mol2_MolInfo_Name>
10433

> <Mol2_MolInfo_Type>
SMALL

> <Mol2_MolInfo_Charge>
USER_CHARGES

> <Mol2_Substructures>
     1 UNK         1 GROUP             0       ****    0 ROOT    

> <Name>
10433

$$$$
10433
  SciTegic06232017503D

 24 25  0  0  0  0            999 V2000
   -0.3702    2.0480   -0.0219 Cl  0  0
   -0.1151    0.2865   -0.0540 C   0  0  1  0  0  0
   -0.9938   -0.4379    1.3174 Cl  0  0
   -0.7980   -0.3543   -1.5710 Cl  0  0
    1.6690   -0.0654    0.0576 S   0  0
    1.7563   -1.8106    0.0409 N   0  0
    1.8587   -2.5364   -1.1066 C   0  0
    2.0587   -2.1424   -2.2559 O   0  0
    1.6573   -3.9751   -0.6753 C   0  0  1  0  0  0
    2.2271   -5.1409   -1.5176 C   0  0
    2.2115   -6.4195   -0.6718 C   0  0
    1.9880   -6.4459    0.6633 C   0  0
    1.8048   -5.1954    1.5311 C   0  0
    2.2216   -3.9514    0.7118 C   0  0  2  0  0  0
    1.8501   -2.5562    1.1772 C   0  0
    1.6869   -2.2040    2.3456 O   0  0
    0.5763   -4.1455   -0.6819 H   0  0
    1.6838   -5.2507   -2.4571 H   0  0
    3.2676   -4.9467   -1.7820 H   0  0
    2.3587   -7.3657   -1.1721 H   0  0
    1.9689   -7.4121    1.1467 H   0  0
    0.7479   -5.1401    1.7960 H   0  0
    2.3564   -5.2514    2.4703 H   0  0
    3.3154   -3.9858    0.7093 H   0  0
  1  2  1  0
  2  3  1  0
  2  4  1  0
  2  5  1  0
  5  6  1  0
  6  7  1  0
  6 15  1  0
  7  8  2  0
  7  9  1  0
  9 10  1  0
  9 14  1  0
  9 17  1  0
 10 11  1  0
 10 18  1  0
 10 19  1  0
 11 12  2  0
 11 20  1  0
 12 13  1  0
 12 21  1  0
 13 14  1  0
 13 22  1  0
 13 23  1  0
 14 15  1  0
 14 24  1  0
 15 16  2  0
M  END
> <Mol2_MolInfo_Name>
10433

> <Mol2_MolInfo_Type>
SMALL

> <Mol2_MolInfo_Charge>
USER_CHARGES

> <Mol2_Substructures>
     1 UNK         1 GROUP             0       ****    0 ROOT    

> <Name>
10433

$$$$
10467
  SciTegic06232017503D

 44 45  0  0  0  0            999 V2000
   -0.5315   -0.8350    1.2664 C   0  0
   -0.0350   -0.0494    0.0254 C   0  0  2  0  0  0
   -0.6662   -0.6279   -1.2759 C   0  0
   -2.1913   -0.6663   -1.2864 C   0  0
   -2.9232    0.5217   -1.3759 C   0  0
   -4.3173    0.4902   -1.3806 C   0  0
   -4.9930   -0.7289   -1.2989 C   0  0
   -6.3654   -0.7340   -1.3052 O   0  0
   -4.2652   -1.9234   -1.2126 C   0  0
   -4.9021   -3.1363   -1.1308 O   0  0
   -2.8691   -1.8872   -1.2080 C   0  0
    1.5300    0.0341   -0.0442 C   0  0  1  0  0  0
    2.0251    0.8254   -1.2821 C   0  0
    2.1609    0.6080    1.2594 C   0  0
    3.6858    0.6531    1.2693 C   0  0
    4.3570    1.8772    1.1916 C   0  0
    5.7510    1.9163    1.1979 C   0  0
    6.4869    0.7331    1.2843 C   0  0
    7.8577    0.7979    1.2877 O   0  0
    5.8204   -0.4971    1.3660 C   0  0
    6.5180   -1.6758    1.4536 O   0  0
    4.4242   -0.5314    1.3587 C   0  0
   -0.1255   -1.8470    1.2850 H   0  0
   -1.6178   -0.9174    1.2919 H   0  0
   -0.2592   -0.3444    2.1997 H   0  0
   -0.4032    0.9727    0.1313 H   0  0
   -0.3844   -0.0302   -2.1418 H   0  0
   -0.2696   -1.6258   -1.4708 H   0  0
   -2.4126    1.4716   -1.4399 H   0  0
   -4.8699    1.4162   -1.4480 H   0  0
   -6.7443    0.1455   -1.3678 H   0  0
   -4.2948   -3.8776   -1.0781 H   0  0
   -2.3101   -2.8093   -1.1381 H   0  0
    1.8990   -0.9873   -0.1541 H   0  0
    1.6216    1.8385   -1.2941 H   0  0
    1.7492    0.3415   -2.2178 H   0  0
    3.1116    0.9056   -1.3101 H   0  0
    1.7602    1.6031    1.4606 H   0  0
    1.8823    0.0036    2.1218 H   0  0
    3.8010    2.8009    1.1222 H   0  0
    6.2565    2.8691    1.1351 H   0  0
    8.1914    1.6956    1.2273 H   0  0
    5.9502   -2.4478    1.5047 H   0  0
    3.9105   -1.4803    1.4212 H   0  0
  1  2  1  0
  1 23  1  0
  1 24  1  0
  1 25  1  0
  2  3  1  0
  2 12  1  0
  2 26  1  0
  3  4  1  0
  3 27  1  0
  3 28  1  0
  4  5  2  0
  4 11  1  0
  5  6  1  0
  5 29  1  0
  6  7  2  0
  6 30  1  0
  7  8  1  0
  7  9  1  0
  8 31  1  0
  9 10  1  0
  9 11  2  0
 10 32  1  0
 11 33  1  0
 12 13  1  0
 12 14  1  0
 12 34  1  0
 13 35  1  0
 13 36  1  0
 13 37  1  0
 14 15  1  0
 14 38  1  0
 14 39  1  0
 15 16  2  0
 15 22  1  0
 16 17  1  0
 16 40  1  0
 17 18  2  0
 17 41  1  0
 18 19  1  0
 18 20  1  0
 19 42  1  0
 20 21  1  0
 20 22  2  0
 21 43  1  0
 22 44  1  0
M  END
> <Mol2_MolInfo_Name>
10467

> <Mol2_MolInfo_Type>
SMALL

> <Mol2_MolInfo_Charge>
USER_CHARGES

> <Mol2_Substructures>
     1 UNK         1 GROUP             0       ****    0 ROOT    

> <Name>
10467

$$$$
10467
  SciTegic06232017503D

 44 45  0  0  0  0            999 V2000
   -0.6201   -0.6711    1.3940 C   0  0
   -0.0394   -0.0200    0.1120 C   0  0  2  0  0  0
   -0.6186   -0.7085   -1.1597 C   0  0
   -2.1417   -0.7287   -1.2405 C   0  0
   -2.8476    0.4533   -1.4842 C   0  0
   -4.2402    0.4391   -1.5543 C   0  0
   -4.9401   -0.7568   -1.3835 C   0  0
   -6.3106   -0.7447   -1.4557 O   0  0
   -4.2384   -1.9457   -1.1422 C   0  0
   -4.8997   -3.1361   -0.9709 O   0  0
   -2.8436   -1.9270   -1.0731 C   0  0
    1.5290    0.0215    0.1229 C   0  0  2  0  0  0
    2.0918    0.6726    1.4128 C   0  0
    2.1258    0.7106   -1.1403 C   0  0
    3.6499    0.7209   -1.2071 C   0  0
    4.3573    1.9163   -1.0464 C   0  0
    5.7506    1.9226   -1.1086 C   0  0
    6.4497    0.7350   -1.3334 C   0  0
    7.8206    0.7670   -1.3896 O   0  0
    5.7466   -0.4659   -1.4982 C   0  0
    6.4064   -1.6482   -1.7227 O   0  0
    4.3514   -0.4676   -1.4350 C   0  0
   -0.2593   -1.6926    1.5197 H   0  0
   -1.7092   -0.7076    1.3780 H   0  0
   -0.3638   -0.1105    2.2921 H   0  0
   -0.3850    1.0155    0.1011 H   0  0
   -0.2896   -0.1982   -2.0636 H   0  0
   -0.2303   -1.7252   -1.2423 H   0  0
   -2.3181    1.3856   -1.6172 H   0  0
   -4.7731    1.3603   -1.7409 H   0  0
   -6.6708    0.1286   -1.6250 H   0  0
   -4.3099   -3.8760   -0.8107 H   0  0
   -2.3046   -2.8446   -0.8844 H   0  0
    1.8739   -1.0141    0.1160 H   0  0
    1.7205    1.6903    1.5388 H   0  0
    3.1806    0.7191    1.4075 H   0  0
    1.8307    0.1064    2.3059 H   0  0
    1.8025    0.2048   -2.0487 H   0  0
    1.7441    1.7298   -1.2236 H   0  0
    3.8304    2.8428   -0.8698 H   0  0
    6.2848    2.8531   -0.9815 H   0  0
    8.1825    1.6464   -1.2600 H   0  0
    5.8144   -2.3973   -1.8199 H   0  0
    3.8102   -1.3944   -1.5618 H   0  0
  1  2  1  0
  1 23  1  0
  1 24  1  0
  1 25  1  0
  2  3  1  0
  2 12  1  0
  2 26  1  0
  3  4  1  0
  3 27  1  0
  3 28  1  0
  4  5  2  0
  4 11  1  0
  5  6  1  0
  5 29  1  0
  6  7  2  0
  6 30  1  0
  7  8  1  0
  7  9  1  0
  8 31  1  0
  9 10  1  0
  9 11  2  0
 10 32  1  0
 11 33  1  0
 12 13  1  0
 12 14  1  0
 12 34  1  0
 13 35  1  0
 13 36  1  0
 13 37  1  0
 14 15  1  0
 14 38  1  0
 14 39  1  0
 15 16  2  0
 15 22  1  0
 16 17  1  0
 16 40  1  0
 17 18  2  0
 17 41  1  0
 18 19  1  0
 18 20  1  0
 19 42  1  0
 20 21  1  0
 20 22  2  0
 21 43  1  0
 22 44  1  0
M  END
> <Mol2_MolInfo_Name>
10467

> <Mol2_MolInfo_Type>
SMALL

> <Mol2_MolInfo_Charge>
USER_CHARGES

> <Mol2_Substructures>
     1 UNK         1 GROUP             0       ****    0 ROOT    

> <Name>
10467

$$$$
10467
  SciTegic06232017503D

 44 45  0  0  0  0            999 V2000
   -0.5769   -0.8355   -1.3397 C   0  0
   -0.0210   -0.0548   -0.1208 C   0  0  1  0  0  0
   -0.6226   -0.6107    1.2044 C   0  0
   -2.1469   -0.6504    1.2554 C   0  0
   -2.8234   -1.8740    1.2299 C   0  0
   -4.2169   -1.9083    1.2788 C   0  0
   -4.9471   -0.7208    1.3548 C   0  0
   -6.3172   -0.7807    1.4027 O   0  0
   -4.2750    0.5087    1.3820 C   0  0
   -4.9662    1.6920    1.4573 O   0  0
   -2.8796    0.5386    1.3332 C   0  0
    1.5474   -0.0150   -0.1019 C   0  0  1  0  0  0
    2.1460    0.4506   -1.4541 C   0  0
    2.1184    0.8413    1.0672 C   0  0
    3.6389    0.8203    1.1878 C   0  0
    4.3931    1.9453    0.8405 C   0  0
    5.7835    1.9194    0.9471 C   0  0
    6.4328    0.7706    1.4035 C   0  0
    7.8020    0.7697    1.4976 O   0  0
    5.6822   -0.3588    1.7565 C   0  0
    6.2924   -1.5023    2.2078 O   0  0
    4.2901   -0.3286    1.6487 C   0  0
   -0.2159   -1.8645   -1.3511 H   0  0
   -0.2998   -0.3712   -2.2854 H   0  0
   -1.6662   -0.8690   -1.3429 H   0  0
   -0.3653    0.9759   -0.2243 H   0  0
   -0.2219   -1.6060    1.4052 H   0  0
   -0.3217   -0.0003    2.0545 H   0  0
   -2.2721   -2.8011    1.1697 H   0  0
   -4.7267   -2.8607    1.2581 H   0  0
   -6.6559   -1.6785    1.3794 H   0  0
   -4.3938    2.4623    1.4690 H   0  0
   -2.3619    1.4869    1.3547 H   0  0
    1.8880   -1.0402    0.0543 H   0  0
    1.7782    1.4389   -1.7325 H   0  0
    1.9096   -0.2374   -2.2650 H   0  0
    3.2342    0.5013   -1.4258 H   0  0
    1.7680    1.8714    0.9810 H   0  0
    1.7474    0.4906    2.0287 H   0  0
    3.9054    2.8398    0.4815 H   0  0
    6.3546    2.7942    0.6722 H   0  0
    8.1986    1.5999    1.2244 H   0  0
    5.6716   -2.2044    2.4139 H   0  0
    3.7116   -1.2001    1.9204 H   0  0
  1  2  1  0
  1 23  1  0
  1 24  1  0
  1 25  1  0
  2  3  1  0
  2 12  1  0
  2 26  1  0
  3  4  1  0
  3 27  1  0
  3 28  1  0
  4  5  2  0
  4 11  1  0
  5  6  1  0
  5 29  1  0
  6  7  2  0
  6 30  1  0
  7  8  1  0
  7  9  1  0
  8 31  1  0
  9 10  1  0
  9 11  2  0
 10 32  1  0
 11 33  1  0
 12 13  1  0
 12 14  1  0
 12 34  1  0
 13 35  1  0
 13 36  1  0
 13 37  1  0
 14 15  1  0
 14 38  1  0
 14 39  1  0
 15 16  2  0
 15 22  1  0
 16 17  1  0
 16 40  1  0
 17 18  2  0
 17 41  1  0
 18 19  1  0
 18 20  1  0
 19 42  1  0
 20 21  1  0
 20 22  2  0
 21 43  1  0
 22 44  1  0
M  END
> <Mol2_MolInfo_Name>
10467

> <Mol2_MolInfo_Type>
SMALL

> <Mol2_MolInfo_Charge>
USER_CHARGES

> <Mol2_Substructures>
     1 UNK         1 GROUP             0       ****    0 ROOT    

> <Name>
10467

$$$$
10491
  SciTegic06232017503D

 42 44  0  0  0  0            999 V2000
    0.0501    2.5532   -0.8999 C   0  0
   -0.6165    1.4337   -0.2214 N   0  0
    0.0580    0.3985    0.3688 C   0  0
   -0.5025   -0.4668    1.0484 O   0  0
    1.5543    0.2777    0.1847 C   0  0
    2.1445    0.3457   -1.0839 C   0  0
    3.5220    0.2028   -1.2321 C   0  0
    4.3314   -0.0283   -0.1177 C   0  0
    3.7562   -0.1240    1.1627 C   0  0
    2.3703    0.0285    1.2953 C   0  0
    4.5645   -0.3721    2.3716 N   0  3
    5.3420   -1.3210    2.3689 O   0  0
    4.3950    0.3716    3.3327 O   0  5
    6.1403   -0.1527   -0.3714 S   0  0  1  0  0  0
    6.3553   -0.4113   -1.8644 O   0  0
    6.4969    1.6316   -0.1332 C   0  0
    6.5232    2.2095    1.0411 N   0  0
    6.7842    3.4979    0.9359 C   0  0
    6.9708    3.9870   -0.3541 C   0  0
    6.7908    2.6791   -1.4840 S   0  0
   -2.0157    1.5596   -0.0787 C   0  0
   -2.8015    1.3954   -1.2271 C   0  0
   -4.1893    1.4987   -1.1552 C   0  0
   -4.8047    1.7758    0.0631 C   0  0
   -4.0327    1.9587    1.2091 C   0  0
   -2.6381    1.8576    1.1546 C   0  0
   -1.8423    2.1305    2.4260 C   0  0
   -0.5286    3.4719   -0.7928 H   0  0
    0.1490    2.3468   -1.9657 H   0  0
    1.0400    2.7568   -0.4901 H   0  0
    1.5416    0.5015   -1.9668 H   0  0
    3.9556    0.2754   -2.2186 H   0  0
    1.9273   -0.0475    2.2792 H   0  0
    6.8379    4.0937    1.8352 H   0  0
    7.1920    4.9934   -0.6781 H   0  0
   -2.3390    1.1758   -2.1789 H   0  0
   -4.7877    1.3633   -2.0441 H   0  0
   -5.8803    1.8565    0.1183 H   0  0
   -4.5253    2.1878    2.1432 H   0  0
   -2.4011    2.7629    3.1172 H   0  0
   -0.9190    2.6654    2.2018 H   0  0
   -1.5895    1.1990    2.9323 H   0  0
  1  2  1  0
  1 28  1  0
  1 29  1  0
  1 30  1  0
  2  3  1  0
  2 21  1  0
  3  4  2  0
  3  5  1  0
  5  6  2  0
  5 10  1  0
  6  7  1  0
  6 31  1  0
  7  8  2  0
  7 32  1  0
  8  9  1  0
  8 14  1  0
  9 10  2  0
  9 11  1  0
 10 33  1  0
 11 12  2  0
 11 13  1  0
 14 15  2  0
 14 16  1  0
 16 17  2  0
 16 20  1  0
 17 18  1  0
 18 19  2  0
 18 34  1  0
 19 20  1  0
 19 35  1  0
 21 22  2  0
 21 26  1  0
 22 23  1  0
 22 36  1  0
 23 24  2  0
 23 37  1  0
 24 25  1  0
 24 38  1  0
 25 26  2  0
 25 39  1  0
 26 27  1  0
 27 40  1  0
 27 41  1  0
 27 42  1  0
M  CHG  2  11   1  13  -1
M  END
> <Mol2_MolInfo_Name>
10491

> <Mol2_MolInfo_Type>
SMALL

> <Mol2_MolInfo_Charge>
USER_CHARGES

> <Mol2_Substructures>
     1 UNK         1 GROUP             0       ****    0 ROOT    

> <Name>
10491

$$$$
10491
  SciTegic06232017503D

 42 44  0  0  0  0            999 V2000
    0.1759    2.7628   -0.4975 C   0  0
   -0.5041    1.5293   -0.0805 N   0  0
    0.1591    0.4151    0.3596 C   0  0
   -0.4188   -0.5661    0.8371 O   0  0
    1.6662    0.3512    0.2503 C   0  0
    2.3254    0.6493   -0.9491 C   0  0
    3.7122    0.5595   -1.0344 C   0  0
    4.4632    0.1531    0.0704 C   0  0
    3.8195   -0.1755    1.2778 C   0  0
    2.4241   -0.0735    1.3489 C   0  0
    4.5624   -0.6104    2.4761 N   0  3
    5.3698   -1.5265    2.3642 O   0  0
    4.3092   -0.0492    3.5375 O   0  5
    6.2832    0.0888   -0.1092 S   0  0  2  0  0  0
    6.6595    1.2097   -1.0807 O   0  0
    6.3484   -1.4487   -1.1107 C   0  0
    6.1640   -1.4832   -2.4072 N   0  0
    6.2460   -2.7150   -2.8706 C   0  0
    6.4974   -3.7121   -1.9324 C   0  0
    6.6319   -2.9850   -0.3599 S   0  0
   -1.9129    1.6045   -0.0233 C   0  0
   -2.6080    1.6468   -1.2393 C   0  0
   -3.9995    1.7164   -1.2566 C   0  0
   -4.7097    1.7534   -0.0590 C   0  0
   -4.0287    1.7293    1.1571 C   0  0
   -2.6316    1.6582    1.1923 C   0  0
   -1.9394    1.6996    2.5502 C   0  0
   -0.4368    3.6384   -0.2774 H   0  0
    0.3605    2.7499   -1.5718 H   0  0
    1.1259    2.9064    0.0184 H   0  0
    1.7699    0.9442   -1.8276 H   0  0
    4.2023    0.8032   -1.9660 H   0  0
    1.9273   -0.3268    2.2758 H   0  0
    6.1156   -2.8835   -3.9293 H   0  0
    6.6028   -4.7771   -2.0789 H   0  0
   -2.0717    1.6153   -2.1770 H   0  0
   -4.5271    1.7411   -2.1987 H   0  0
   -5.7882    1.8089   -0.0728 H   0  0
   -4.5940    1.7740    2.0768 H   0  0
   -2.5563    2.2051    3.2943 H   0  0
   -1.0056    2.2599    2.4983 H   0  0
   -1.7219    0.6920    2.9045 H   0  0
  1  2  1  0
  1 28  1  0
  1 29  1  0
  1 30  1  0
  2  3  1  0
  2 21  1  0
  3  4  2  0
  3  5  1  0
  5  6  2  0
  5 10  1  0
  6  7  1  0
  6 31  1  0
  7  8  2  0
  7 32  1  0
  8  9  1  0
  8 14  1  0
  9 10  2  0
  9 11  1  0
 10 33  1  0
 11 12  2  0
 11 13  1  0
 14 15  2  0
 14 16  1  0
 16 17  2  0
 16 20  1  0
 17 18  1  0
 18 19  2  0
 18 34  1  0
 19 20  1  0
 19 35  1  0
 21 22  2  0
 21 26  1  0
 22 23  1  0
 22 36  1  0
 23 24  2  0
 23 37  1  0
 24 25  1  0
 24 38  1  0
 25 26  2  0
 25 39  1  0
 26 27  1  0
 27 40  1  0
 27 41  1  0
 27 42  1  0
M  CHG  2  11   1  13  -1
M  END
> <Mol2_MolInfo_Name>
10491

> <Mol2_MolInfo_Type>
SMALL

> <Mol2_MolInfo_Charge>
USER_CHARGES

> <Mol2_Substructures>
     1 UNK         1 GROUP             0       ****    0 ROOT    

> <Name>
10491

$$$$
10502
  SciTegic06232017503D

 53 57  0  0  0  0            999 V2000
   -7.0348    0.0903   -0.1403 C   0  0
   -6.2919   -1.1123   -0.3076 O   0  0
   -4.9118   -1.0651   -0.2573 C   0  0
   -4.2427   -2.2763   -0.4193 C   0  0
   -2.8532   -2.3485   -0.3849 C   0  0
   -2.0824   -1.1796   -0.1815 C   0  0
   -0.6671   -1.2171   -0.1380 C   0  0
    0.0763   -0.0536    0.0775 C   0  0
   -0.5883    1.1657    0.2313 C   0  0
   -1.9779    1.2384    0.1885 C   0  0
   -2.7503    0.0694   -0.0147 C   0  0
   -4.1665    0.1069   -0.0564 C   0  0
    1.5703   -0.1186    0.1329 C   0  0
    2.3030    0.8390   -0.4261 N   0  0
    3.5619    0.5092   -0.2481 C   0  0
    3.6545   -0.6740    0.4350 N   0  0
    2.3837   -1.1042    0.7130 C   0  0
    2.1028   -2.3480    1.4867 C   0  0
    2.8976   -3.4899    1.3193 C   0  0
    2.6009   -4.6333    2.0634 C   0  0
    1.5742   -4.6917    2.9488 N   0  0
    0.8136   -3.5789    3.1067 C   0  0
    1.0443   -2.3957    2.4026 C   0  0
    4.7397    1.3060   -0.7235 C   0  0
    4.5528    2.4254   -1.5454 C   0  0
    5.6449    3.1681   -1.9852 C   0  0
    6.9314    2.7910   -1.6058 C   0  0
    7.1342    1.6833   -0.7838 C   0  0
    6.0394    0.9426   -0.3468 C   0  0
    8.3514    3.7803   -2.1797 S   0  0  1  0  0  0
    9.5800    3.2636   -1.4283 O   0  0
    8.4161    3.0317   -3.8750 C   0  0
   -8.0996   -0.1324   -0.2056 H   0  0
   -6.8013    0.8174   -0.9195 H   0  0
   -6.8519    0.5403    0.8365 H   0  0
   -4.8120   -3.1814   -0.5743 H   0  0
   -2.3569   -3.3000   -0.5110 H   0  0
   -0.1680   -2.1663   -0.2728 H   0  0
   -0.0240    2.0726    0.3943 H   0  0
   -2.4732    2.1903    0.3147 H   0  0
   -4.6526    1.0626    0.0719 H   0  0
    4.5098   -1.1394    0.7027 H   0  0
    3.7244   -3.4975    0.6240 H   0  0
    3.1931   -5.5298    1.9537 H   0  0
    0.0036   -3.6460    3.8180 H   0  0
    0.4127   -1.5353    2.5700 H   0  0
    3.5604    2.7256   -1.8492 H   0  0
    5.4900    4.0297   -2.6183 H   0  0
    8.1304    1.3930   -0.4836 H   0  0
    6.2118    0.0869    0.2894 H   0  0
    7.4895    3.2222   -4.4167 H   0  0
    8.5688    1.9543   -3.8094 H   0  0
    9.2440    3.4596   -4.4399 H   0  0
  1  2  1  0
  1 33  1  0
  1 34  1  0
  1 35  1  0
  2  3  1  0
  3  4  2  0
  3 12  1  0
  4  5  1  0
  4 36  1  0
  5  6  2  0
  5 37  1  0
  6  7  1  0
  6 11  1  0
  7  8  2  0
  7 38  1  0
  8  9  1  0
  8 13  1  0
  9 10  2  0
  9 39  1  0
 10 11  1  0
 10 40  1  0
 11 12  2  0
 12 41  1  0
 13 14  1  0
 13 17  2  0
 14 15  2  0
 15 16  1  0
 15 24  1  0
 16 17  1  0
 16 42  1  0
 17 18  1  0
 18 19  2  0
 18 23  1  0
 19 20  1  0
 19 43  1  0
 20 21  2  0
 20 44  1  0
 21 22  1  0
 22 23  2  0
 22 45  1  0
 23 46  1  0
 24 25  2  0
 24 29  1  0
 25 26  1  0
 25 47  1  0
 26 27  2  0
 26 48  1  0
 27 28  1  0
 27 30  1  0
 28 29  2  0
 28 49  1  0
 29 50  1  0
 30 31  2  0
 30 32  1  0
 32 51  1  0
 32 52  1  0
 32 53  1  0
M  END
> <Mol2_MolInfo_Name>
10502

> <Mol2_MolInfo_Type>
SMALL

> <Mol2_MolInfo_Charge>
USER_CHARGES

> <Mol2_Substructures>
     1 UNK         1 GROUP             0       ****    0 ROOT    

> <Name>
10502

$$$$
10502
  SciTegic06232017503D

 53 57  0  0  0  0            999 V2000
   -7.0348    0.0903    0.1403 C   0  0
   -6.2919   -1.1123    0.3076 O   0  0
   -4.9118   -1.0651    0.2573 C   0  0
   -4.2427   -2.2763    0.4193 C   0  0
   -2.8532   -2.3485    0.3849 C   0  0
   -2.0824   -1.1796    0.1815 C   0  0
   -0.6671   -1.2171    0.1380 C   0  0
    0.0763   -0.0536   -0.0775 C   0  0
   -0.5883    1.1657   -0.2313 C   0  0
   -1.9779    1.2384   -0.1885 C   0  0
   -2.7503    0.0694    0.0147 C   0  0
   -4.1665    0.1069    0.0563 C   0  0
    1.5703   -0.1186   -0.1329 C   0  0
    2.3030    0.8390    0.4261 N   0  0
    3.5619    0.5092    0.2481 C   0  0
    3.6545   -0.6740   -0.4350 N   0  0
    2.3837   -1.1042   -0.7130 C   0  0
    2.1028   -2.3480   -1.4867 C   0  0
    2.8976   -3.4899   -1.3193 C   0  0
    2.6009   -4.6333   -2.0634 C   0  0
    1.5742   -4.6917   -2.9488 N   0  0
    0.8136   -3.5789   -3.1067 C   0  0
    1.0443   -2.3957   -2.4026 C   0  0
    4.7397    1.3060    0.7235 C   0  0
    4.5528    2.4253    1.5454 C   0  0
    5.6449    3.1681    1.9852 C   0  0
    6.9314    2.7910    1.6058 C   0  0
    7.1342    1.6833    0.7838 C   0  0
    6.0394    0.9426    0.3468 C   0  0
    8.3514    3.7803    2.1797 S   0  0  2  0  0  0
    9.5800    3.2636    1.4283 O   0  0
    8.4161    3.0317    3.8750 C   0  0
   -8.0996   -0.1324    0.2056 H   0  0
   -6.8519    0.5403   -0.8366 H   0  0
   -6.8013    0.8174    0.9195 H   0  0
   -4.8120   -3.1814    0.5743 H   0  0
   -2.3569   -3.3000    0.5110 H   0  0
   -0.1680   -2.1663    0.2728 H   0  0
   -0.0240    2.0726   -0.3943 H   0  0
   -2.4732    2.1903   -0.3147 H   0  0
   -4.6526    1.0626   -0.0719 H   0  0
    4.5098   -1.1394   -0.7027 H   0  0
    3.7244   -3.4975   -0.6240 H   0  0
    3.1931   -5.5298   -1.9537 H   0  0
    0.0036   -3.6460   -3.8180 H   0  0
    0.4127   -1.5353   -2.5700 H   0  0
    3.5604    2.7256    1.8492 H   0  0
    5.4900    4.0297    2.6183 H   0  0
    8.1304    1.3930    0.4836 H   0  0
    6.2118    0.0869   -0.2894 H   0  0
    7.4895    3.2222    4.4167 H   0  0
    9.2440    3.4596    4.4399 H   0  0
    8.5688    1.9543    3.8094 H   0  0
  1  2  1  0
  1 33  1  0
  1 34  1  0
  1 35  1  0
  2  3  1  0
  3  4  2  0
  3 12  1  0
  4  5  1  0
  4 36  1  0
  5  6  2  0
  5 37  1  0
  6  7  1  0
  6 11  1  0
  7  8  2  0
  7 38  1  0
  8  9  1  0
  8 13  1  0
  9 10  2  0
  9 39  1  0
 10 11  1  0
 10 40  1  0
 11 12  2  0
 12 41  1  0
 13 14  1  0
 13 17  2  0
 14 15  2  0
 15 16  1  0
 15 24  1  0
 16 17  1  0
 16 42  1  0
 17 18  1  0
 18 19  2  0
 18 23  1  0
 19 20  1  0
 19 43  1  0
 20 21  2  0
 20 44  1  0
 21 22  1  0
 22 23  2  0
 22 45  1  0
 23 46  1  0
 24 25  2  0
 24 29  1  0
 25 26  1  0
 25 47  1  0
 26 27  2  0
 26 48  1  0
 27 28  1  0
 27 30  1  0
 28 29  2  0
 28 49  1  0
 29 50  1  0
 30 31  2  0
 30 32  1  0
 32 51  1  0
 32 52  1  0
 32 53  1  0
M  END
> <Mol2_MolInfo_Name>
10502

> <Mol2_MolInfo_Type>
SMALL

> <Mol2_MolInfo_Charge>
USER_CHARGES

> <Mol2_Substructures>
     1 UNK         1 GROUP             0       ****    0 ROOT    

> <Name>
10502

$$$$
10502
  SciTegic06232017503D

 53 57  0  0  0  0            999 V2000
   -7.1815   -0.1529   -0.0283 C   0  0
   -6.3799   -1.3102    0.1830 O   0  0
   -5.0035   -1.1899    0.1652 C   0  0
   -4.2753   -2.3589    0.3756 C   0  0
   -2.8836   -2.3571    0.3784 C   0  0
   -2.1711   -1.1541    0.1632 C   0  0
   -0.7554   -1.1168    0.1562 C   0  0
   -0.0715    0.0791   -0.0722 C   0  0
   -0.7926    1.2575   -0.2735 C   0  0
   -2.1850    1.2563   -0.2685 C   0  0
   -2.8997    0.0528   -0.0537 C   0  0
   -4.3165    0.0151   -0.0483 C   0  0
    1.4211    0.0950   -0.0776 C   0  0
    2.1449    1.1153    0.4824 N   0  0
    3.4725    0.7973    0.3853 C   0  0
    3.6224   -0.3596   -0.2163 N   0  0
    2.4080   -0.7934   -0.5403 C   0  0
    2.2515   -2.0811   -1.2955 C   0  0
    3.2037   -3.1063   -1.1787 C   0  0
    3.0236   -4.2889   -1.8982 C   0  0
    1.9654   -4.4979   -2.7207 N   0  0
    1.0546   -3.4997   -2.8394 C   0  0
    1.1622   -2.2884   -2.1542 C   0  0
    4.5905    1.6488    0.9078 C   0  0
    5.9169    1.2046    0.8231 C   0  0
    6.9573    1.9911    1.3096 C   0  0
    6.6729    3.2267    1.8871 C   0  0
    5.3597    3.6864    1.9733 C   0  0
    4.3222    2.8966    1.4857 C   0  0
    8.0456    4.2497    2.5130 S   0  0  1  0  0  0
    7.4544    5.6206    2.8483 O   0  0
    8.2216    3.3435    4.1213 C   0  0
   -8.2343   -0.4311    0.0178 H   0  0
   -6.9990    0.2861   -1.0103 H   0  0
   -7.0059    0.6011    0.7405 H   0  0
   -4.7993   -3.2893    0.5398 H   0  0
   -2.3407   -3.2771    0.5428 H   0  0
   -0.2085   -2.0325    0.3312 H   0  0
   -0.2722    2.1888   -0.4457 H   0  0
   -2.7266    2.1768   -0.4322 H   0  0
   -4.8492    0.9395   -0.2145 H   0  0
    1.7629    1.9411    0.9202 H   0  0
    4.0647   -2.9971   -0.5354 H   0  0
    3.7387   -5.0944   -1.8196 H   0  0
    0.2247   -3.6818   -3.5063 H   0  0
    0.4145   -1.5242   -2.3044 H   0  0
    6.1499    0.2471    0.3801 H   0  0
    7.9764    1.6394    1.2392 H   0  0
    5.1389    4.6462    2.4168 H   0  0
    3.3094    3.2647    1.5610 H   0  0
    8.4730    2.2970    3.9500 H   0  0
    7.2923    3.3921    4.6893 H   0  0
    9.0114    3.7977    4.7193 H   0  0
  1  2  1  0
  1 33  1  0
  1 34  1  0
  1 35  1  0
  2  3  1  0
  3  4  2  0
  3 12  1  0
  4  5  1  0
  4 36  1  0
  5  6  2  0
  5 37  1  0
  6  7  1  0
  6 11  1  0
  7  8  2  0
  7 38  1  0
  8  9  1  0
  8 13  1  0
  9 10  2  0
  9 39  1  0
 10 11  1  0
 10 40  1  0
 11 12  2  0
 12 41  1  0
 13 14  1  0
 13 17  2  0
 14 15  1  0
 14 42  1  0
 15 16  2  0
 15 24  1  0
 16 17  1  0
 17 18  1  0
 18 19  2  0
 18 23  1  0
 19 20  1  0
 19 43  1  0
 20 21  2  0
 20 44  1  0
 21 22  1  0
 22 23  2  0
 22 45  1  0
 23 46  1  0
 24 25  2  0
 24 29  1  0
 25 26  1  0
 25 47  1  0
 26 27  2  0
 26 48  1  0
 27 28  1  0
 27 30  1  0
 28 29  2  0
 28 49  1  0
 29 50  1  0
 30 31  2  0
 30 32  1  0
 32 51  1  0
 32 52  1  0
 32 53  1  0
M  END
> <Mol2_MolInfo_Name>
10502

> <Mol2_MolInfo_Type>
SMALL

> <Mol2_MolInfo_Charge>
USER_CHARGES

> <Mol2_Substructures>
     1 UNK         1 GROUP             0       ****    0 ROOT    

> <Name>
10502

$$$$
10502
  SciTegic06232017503D

 53 57  0  0  0  0            999 V2000
   -7.1932   -0.1685   -0.0411 C   0  0
   -6.3938   -1.3291    0.1615 O   0  0
   -5.0171   -1.2099    0.1556 C   0  0
   -4.2911   -2.3829    0.3503 C   0  0
   -2.8993   -2.3823    0.3603 C   0  0
   -2.1845   -1.1764    0.1699 C   0  0
   -0.7685   -1.1399    0.1707 C   0  0
   -0.0830    0.0598   -0.0331 C   0  0
   -0.8027    1.2419   -0.2157 C   0  0
   -2.1950    1.2415   -0.2172 C   0  0
   -2.9113    0.0346   -0.0288 C   0  0
   -4.3280   -0.0019   -0.0322 C   0  0
    1.4096    0.0780   -0.0374 C   0  0
    2.1312    1.0801    0.5577 N   0  0
    3.4598    0.7726    0.4438 C   0  0
    3.6123   -0.3604   -0.2016 N   0  0
    2.3982   -0.7904   -0.5340 C   0  0
    2.2436   -2.0531   -1.3326 C   0  0
    3.2103   -3.0695   -1.2695 C   0  0
    3.0324   -4.2285   -2.0270 C   0  0
    1.9617   -4.4235   -2.8364 N   0  0
    1.0363   -3.4341   -2.9036 C   0  0
    1.1415   -2.2458   -2.1786 C   0  0
    4.5769    1.6161    0.9828 C   0  0
    5.9106    1.2718    0.7247 C   0  0
    6.9505    2.0516    1.2230 C   0  0
    6.6595    3.1832    1.9817 C   0  0
    5.3385    3.5367    2.2529 C   0  0
    4.3012    2.7549    1.7514 C   0  0
    8.0325    4.1859    2.6403 S   0  0  2  0  0  0
    7.4161    5.1849    3.6218 O   0  0
    8.3463    5.1173    1.0676 C   0  0
   -8.2462   -0.4483   -0.0111 H   0  0
   -7.0007    0.2854   -1.0143 H   0  0
   -7.0269    0.5746    0.7403 H   0  0
   -4.8167   -3.3156    0.4955 H   0  0
   -2.3582   -3.3056    0.5114 H   0  0
   -0.2227   -2.0591    0.3302 H   0  0
   -0.2811    2.1756   -0.3689 H   0  0
   -2.7357    2.1651   -0.3658 H   0  0
   -4.8592    0.9257   -0.1847 H   0  0
    1.7476    1.8895    1.0241 H   0  0
    4.0819   -2.9719   -0.6386 H   0  0
    3.7596   -5.0264   -1.9904 H   0  0
    0.1967   -3.6041   -3.5613 H   0  0
    0.3816   -1.4873   -2.2903 H   0  0
    6.1496    0.3982    0.1357 H   0  0
    7.9749    1.7769    1.0189 H   0  0
    5.1121    4.4106    2.8459 H   0  0
    3.2828    3.0418    1.9691 H   0  0
    8.6243    4.4364    0.2632 H   0  0
    9.1559    5.8319    1.2141 H   0  0
    7.4552    5.6691    0.7682 H   0  0
  1  2  1  0
  1 33  1  0
  1 34  1  0
  1 35  1  0
  2  3  1  0
  3  4  2  0
  3 12  1  0
  4  5  1  0
  4 36  1  0
  5  6  2  0
  5 37  1  0
  6  7  1  0
  6 11  1  0
  7  8  2  0
  7 38  1  0
  8  9  1  0
  8 13  1  0
  9 10  2  0
  9 39  1  0
 10 11  1  0
 10 40  1  0
 11 12  2  0
 12 41  1  0
 13 14  1  0
 13 17  2  0
 14 15  1  0
 14 42  1  0
 15 16  2  0
 15 24  1  0
 16 17  1  0
 17 18  1  0
 18 19  2  0
 18 23  1  0
 19 20  1  0
 19 43  1  0
 20 21  2  0
 20 44  1  0
 21 22  1  0
 22 23  2  0
 22 45  1  0
 23 46  1  0
 24 25  2  0
 24 29  1  0
 25 26  1  0
 25 47  1  0
 26 27  2  0
 26 48  1  0
 27 28  1  0
 27 30  1  0
 28 29  2  0
 28 49  1  0
 29 50  1  0
 30 31  2  0
 30 32  1  0
 32 51  1  0
 32 52  1  0
 32 53  1  0
M  END
> <Mol2_MolInfo_Name>
10502

> <Mol2_MolInfo_Type>
SMALL

> <Mol2_MolInfo_Charge>
USER_CHARGES

> <Mol2_Substructures>
     1 UNK         1 GROUP             0       ****    0 ROOT    

> <Name>
10502

$$$$
10512
  SciTegic06232017503D

 23 23  0  0  0  0            999 V2000
   -0.7207   -0.6498   -1.0931 O   0  0
   -0.1118   -0.0086    0.0192 C   0  0  1  0  0  0
    1.4326   -0.0706   -0.1035 C   0  0
    1.9924   -1.4873   -0.0522 C   0  0
    2.3152   -2.1638   -1.2323 C   0  0
    2.8302   -3.4591   -1.1814 C   0  0
    3.0272   -4.0891    0.0487 C   0  0
    3.5364   -5.3631    0.0750 O   0  0
    2.7042   -3.4167    1.2348 C   0  0
    2.8869   -4.0129    2.4574 O   0  0
    2.1885   -2.1199    1.1795 C   0  0
   -0.5940    1.4576    0.1420 C   0  0
   -0.1822    2.1015    1.1331 O   0  0
   -1.3665    1.9230   -0.7283 O   0  5
   -1.2417    0.0069   -1.5629 H   0  0
   -0.4238   -0.5347    0.9229 H   0  0
    1.7655    0.4190   -1.0212 H   0  0
    1.9055    0.4934    0.7031 H   0  0
    2.1647   -1.6883   -2.1907 H   0  0
    3.0751   -3.9721   -2.1001 H   0  0
    3.6293   -5.7030    0.9683 H   0  0
    2.6210   -3.4510    3.1887 H   0  0
    1.9381   -1.6005    2.0935 H   0  0
  1  2  1  0
  1 15  1  0
  2  3  1  0
  2 12  1  0
  2 16  1  0
  3  4  1  0
  3 17  1  0
  3 18  1  0
  4  5  2  0
  4 11  1  0
  5  6  1  0
  5 19  1  0
  6  7  2  0
  6 20  1  0
  7  8  1  0
  7  9  1  0
  8 21  1  0
  9 10  1  0
  9 11  2  0
 10 22  1  0
 11 23  1  0
 12 13  2  0
 12 14  1  0
M  CHG  1  14  -1
M  END
> <Mol2_MolInfo_Name>
10512

> <Mol2_MolInfo_Type>
SMALL

> <Mol2_MolInfo_Charge>
USER_CHARGES

> <Mol2_Substructures>
     1 UNK         1 GROUP             0       ****    0 ROOT    

> <Name>
10512

$$$$
10512
  SciTegic06232017503D

 23 23  0  0  0  0            999 V2000
   -0.3871   -0.9115    1.1369 O   0  0
   -0.0738   -0.1102    0.0076 C   0  0  2  0  0  0
    1.4599    0.1314   -0.0042 C   0  0
    2.0017    0.8094   -1.2596 C   0  0
    2.1235    0.0852   -2.4491 C   0  0
    2.6247    0.6978   -3.5974 C   0  0
    3.0085    2.0398   -3.5673 C   0  0
    3.5010    2.6186   -4.7102 O   0  0
    2.8864    2.7722   -2.3785 C   0  0
    3.2517    4.0938   -2.3195 O   0  0
    2.3857    2.1539   -1.2306 C   0  0
   -0.8767    1.2158    0.0434 C   0  0
   -0.8847    1.9001   -1.0040 O   0  0
   -1.4835    1.5315    1.0937 O   0  5
   -0.9782   -0.4060    1.7014 H   0  0
   -0.3621   -0.6681   -0.8846 H   0  0
    1.7624    0.6989    0.8786 H   0  0
    1.9789   -0.8242    0.0909 H   0  0
    1.8284   -0.9533   -2.4851 H   0  0
    2.7131    0.1260   -4.5099 H   0  0
    3.5278    2.0119   -5.4532 H   0  0
    3.0924    4.4860   -1.4583 H   0  0
    2.2878    2.7202   -0.3155 H   0  0
  1  2  1  0
  1 15  1  0
  2  3  1  0
  2 12  1  0
  2 16  1  0
  3  4  1  0
  3 17  1  0
  3 18  1  0
  4  5  2  0
  4 11  1  0
  5  6  1  0
  5 19  1  0
  6  7  2  0
  6 20  1  0
  7  8  1  0
  7  9  1  0
  8 21  1  0
  9 10  1  0
  9 11  2  0
 10 22  1  0
 11 23  1  0
 12 13  2  0
 12 14  1  0
M  CHG  1  14  -1
M  END
> <Mol2_MolInfo_Name>
10512

> <Mol2_MolInfo_Type>
SMALL

> <Mol2_MolInfo_Charge>
USER_CHARGES

> <Mol2_Substructures>
     1 UNK         1 GROUP             0       ****    0 ROOT    

> <Name>
10512

$$$$
10566
  SciTegic06232017502D

 30 32  0  0  0  0            999 V2000
   -4.1678   -0.0854    0.0000 O   0  0
   -2.7987   -0.0475    0.0000 C   0  0
   -2.1400    1.1779    0.0000 C   0  0
   -0.7478    1.2160    0.0000 C   0  0
    0.0097    0.0325    0.0000 C   0  0
   -0.6801   -1.1920    0.0000 C   0  0
   -2.0719   -1.2339    0.0000 C   0  0
    1.5053    0.0639    0.0000 C   0  0
    2.2746    1.1781    0.0000 C   0  0
    3.7335    1.1305    0.0000 C   0  0
    4.4301    2.1444    0.0000 O   0  0
    4.2957   -0.2678    0.0000 C   0  0
    5.6791   -0.5526    0.0000 C   0  0
    6.6367    0.4308    0.0000 O   0  0
    6.1289   -1.8751    0.0000 C   0  0
    5.2225   -2.9316    0.0000 C   0  0
    5.6748   -4.2231    0.0000 O   0  0
    3.8566   -2.6732    0.0000 C   0  0
    3.4028   -1.3567    0.0000 C   0  0
    2.0324   -1.1924    0.0000 O   0  0
   -4.5178   -0.9792    0.0000 H   0  0
   -2.7028    2.1003    0.0000 H   0  0
   -0.2780    2.1867    0.0000 H   0  0
   -0.1472   -2.1316    0.0000 H   0  0
   -2.5792   -2.1877    0.0000 H   0  0
    1.8117    2.1516    0.0000 H   0  0
    7.5305    0.0816    0.0000 H   0  0
    7.1896   -2.0829    0.0000 H   0  0
    6.6328   -4.2796    0.0000 H   0  0
    3.1482   -3.4887    0.0000 H   0  0
  1  2  1  0
  1 21  1  0
  2  3  2  0
  2  7  1  0
  3  4  1  0
  3 22  1  0
  4  5  2  0
  4 23  1  0
  5  6  1  0
  5  8  1  0
  6  7  2  0
  6 24  1  0
  7 25  1  0
  8  9  2  0
  8 20  1  0
  9 10  1  0
  9 26  1  0
 10 11  2  0
 10 12  1  0
 12 13  2  0
 12 19  1  0
 13 14  1  0
 13 15  1  0
 14 27  1  0
 15 16  2  0
 15 28  1  0
 16 17  1  0
 16 18  1  0
 17 29  1  0
 18 19  2  0
 18 30  1  0
 19 20  1  0
M  END
> <Mol2_MolInfo_Name>
10566

> <Mol2_MolInfo_Type>
SMALL

> <Mol2_MolInfo_Charge>
USER_CHARGES

> <Mol2_Substructures>
     1 UNK         1 GROUP             0       ****    0 ROOT    

> <Name>
10566

$$$$
10666
  SciTegic06232017503D

 22 21  0  0  0  0            999 V2000
   -3.0468    4.1045   -0.4006 C   0  0
   -1.5817    3.8974   -0.0044 C   0  0
   -1.2374    2.5280   -0.2304 O   0  0
    0.0587    2.0554    0.0530 C   0  0
    1.3539    2.9362    0.6552 S   0  0
    0.1034    0.3275   -0.3447 S   0  0
    1.9579   -0.4610    0.1118 S   0  0
    2.0012   -0.9816    1.8068 C   0  0
    0.7054   -0.9017    2.8699 S   0  0
    3.2973   -1.4633    2.0745 O   0  0
    3.6416   -1.9539    3.3728 C   0  0
    5.1067   -2.4001    3.3532 C   0  0
   -3.3513    5.1393   -0.2423 H   0  0
   -3.7070    3.4689    0.1904 H   0  0
   -3.2069    3.8673   -1.4528 H   0  0
   -0.9494    4.5596   -0.5992 H   0  0
   -1.4511    4.1611    1.0471 H   0  0
    3.5109   -1.1763    4.1282 H   0  0
    3.0096   -2.8007    3.6480 H   0  0
    5.4118   -2.7807    4.3282 H   0  0
    5.7668   -1.5705    3.0980 H   0  0
    5.2665   -3.1925    2.6213 H   0  0
  1  2  1  0
  1 13  1  0
  1 14  1  0
  1 15  1  0
  2  3  1  0
  2 16  1  0
  2 17  1  0
  3  4  1  0
  4  5  2  0
  4  6  1  0
  6  7  1  0
  7  8  1  0
  8  9  2  0
  8 10  1  0
 10 11  1  0
 11 12  1  0
 11 18  1  0
 11 19  1  0
 12 20  1  0
 12 21  1  0
 12 22  1  0
M  END
> <Mol2_MolInfo_Name>
10666

> <Mol2_MolInfo_Type>
SMALL

> <Mol2_MolInfo_Charge>
USER_CHARGES

> <Mol2_Substructures>
     1 UNK         1 GROUP             0       ****    0 ROOT    

> <Name>
10666

$$$$
10732
  SciTegic06232017503D

 35 37  0  0  0  0            999 V2000
   -4.1553    0.3201    0.1810 C   0  0
   -2.6471    0.1928    0.0640 C   0  0
   -2.0444   -1.0534    0.2391 C   0  0
   -0.6619   -1.1789    0.1361 C   0  0
    0.1291   -0.0572   -0.1438 C   0  0
   -0.4829    1.1947   -0.3079 C   0  0
   -1.8657    1.3174   -0.2062 C   0  0
    1.5326   -0.1942   -0.2385 N   0  0
    2.4262   -1.2377    0.8199 S   0  0
    3.9314   -0.5250    0.1876 C   0  0
    5.0476   -0.7454    0.6594 O   0  0
    3.5975    0.2351   -0.8706 N   0  0
    4.6033    1.1542   -1.4402 C   0  0
    4.7458    2.4768   -0.6941 C   0  0
    5.7791    2.6450    0.2309 C   0  0
    5.9317    3.8634    0.8875 C   0  0
    5.0595    4.9136    0.6073 C   0  0
    5.2084    6.0972    1.2441 F   0  0
    4.0381    4.7561   -0.3276 C   0  0
    3.8849    3.5382   -0.9849 C   0  0
    2.2930    0.3738   -1.2061 C   0  0
    1.8741    0.8428   -2.2682 O   0  0
   -4.4782    1.3614    0.2169 H   0  0
   -4.5030   -0.1625    1.0952 H   0  0
   -4.6440   -0.1749   -0.6588 H   0  0
   -2.6452   -1.9256    0.4527 H   0  0
   -0.2153   -2.1539    0.2671 H   0  0
    0.1083    2.0761   -0.5110 H   0  0
   -2.3248    2.2865   -0.3373 H   0  0
    5.5761    0.6601   -1.4780 H   0  0
    4.3655    1.3694   -2.4837 H   0  0
    6.4585    1.8328    0.4459 H   0  0
    6.7249    3.9938    1.6090 H   0  0
    3.3697    5.5764   -0.5443 H   0  0
    3.0965    3.4197   -1.7141 H   0  0
  1  2  1  0
  1 23  1  0
  1 24  1  0
  1 25  1  0
  2  3  2  0
  2  7  1  0
  3  4  1  0
  3 26  1  0
  4  5  2  0
  4 27  1  0
  5  6  1  0
  5  8  1  0
  6  7  2  0
  6 28  1  0
  7 29  1  0
  8  9  1  0
  8 21  1  0
  9 10  1  0
 10 11  2  0
 10 12  1  0
 12 13  1  0
 12 21  1  0
 13 14  1  0
 13 30  1  0
 13 31  1  0
 14 15  2  0
 14 20  1  0
 15 16  1  0
 15 32  1  0
 16 17  2  0
 16 33  1  0
 17 18  1  0
 17 19  1  0
 19 20  2  0
 19 34  1  0
 20 35  1  0
 21 22  2  0
M  END
> <Mol2_MolInfo_Name>
10732

> <Mol2_MolInfo_Type>
SMALL

> <Mol2_MolInfo_Charge>
USER_CHARGES

> <Mol2_Substructures>
     1 UNK         1 GROUP             0       ****    0 ROOT    

> <Name>
10732

$$$$
10767
  SciTegic06232017503D

118126  0  0  0  0            999 V2000
   -2.4331   -4.1416   -4.6544 C   0  0
   -3.7507   -3.7102   -3.9844 C   0  0
   -3.8957   -3.9185   -2.4311 C   0  0  1  0  0  0
   -3.8730   -5.4495   -2.2645 C   0  0
   -2.7783   -6.1686   -1.9773 C   0  0
   -1.4322   -5.5263   -1.7438 C   0  0
   -1.6440   -4.1984   -0.9908 N   0  3  2  0  0  0
   -1.9363   -4.3974    0.5112 C   0  0
   -3.0532   -3.4186    0.8451 C   0  0
   -3.1502   -2.3816   -0.2830 C   0  0  1  0  0  0
   -2.7570   -3.2449   -1.5370 C   0  0  2  0  0  0
   -4.5141   -1.6287   -0.2688 C   0  0  1  0  0  0
   -4.2116   -0.2982    0.2692 N   0  0
   -5.3223    0.6480    0.2721 C   0  0
   -2.8630    0.0022    0.1343 C   0  0
   -2.1512    1.1721    0.3802 C   0  0
   -0.7460    1.1872    0.3245 C   0  0
   -0.0130    2.3249    0.6190 O   0  0
   -0.6739    3.5444    0.9408 C   0  0
   -0.0485   -0.0063    0.0021 C   0  0
   -0.8036   -1.1860   -0.1255 C   0  0
   -2.1965   -1.1982   -0.0849 C   0  0
    1.5242   -0.0966   -0.0740 C   0  0  1  0  0  0
    2.0340   -0.0664    1.4200 C   0  0
    1.3871   -1.0276    2.4735 C   0  0  2  0  0  0
    1.7856   -0.6553    3.9330 C   0  0
    3.0216   -1.3611    4.5735 C   0  0  2  0  0  0
    3.9175   -1.9912    3.4760 C   0  0
    3.1132   -2.9505    2.5634 N   0  3  2  0  0  0
    3.9524   -3.4362    1.3549 C   0  0
    4.1996   -2.3642    0.2654 C   0  0
    3.0853   -2.2525   -0.7643 C   0  0
    2.0331   -1.3239   -0.8948 C   0  0
    1.4078   -1.6107   -2.0958 N   0  0
    1.8964   -2.7451   -2.6860 C   0  0
    1.5167   -3.4129   -3.8550 C   0  0
    2.2280   -4.5670   -4.1816 C   0  0
    3.2740   -5.0298   -3.3885 C   0  0
    3.6527   -4.3511   -2.2313 C   0  0
    2.9577   -3.1867   -1.8569 C   0  0
    1.6691   -2.5242    2.1972 C   0  0
    2.6193   -2.3925    5.6793 C   0  0  1  0  0  0
    3.8275   -2.9520    6.4542 C   0  0
    1.8282   -1.7967    6.5735 F   0  0
    1.9155   -3.4088    5.1801 F   0  0
    2.0854    1.1261   -0.8799 C   0  0
    1.4964    1.5636   -1.8742 O   0  0
    3.2529    1.6209   -0.4000 O   0  0
    3.8791    2.7327   -1.0230 C   0  0
   -5.3471   -1.8139   -1.5904 C   0  0  2  0  0  0
   -6.7118   -1.5235   -1.2900 O   0  0
   -5.3071   -3.3268   -2.0276 C   0  0  2  0  0  0
   -5.8870   -4.1134   -0.9641 O   0  0
   -7.0572   -4.7844   -1.0991 C   0  0
   -7.7559   -4.8423   -2.1110 O   0  0
   -7.4528   -5.5101    0.1800 C   0  0
   -4.9591   -0.8396   -2.7510 C   0  0
   -5.8019   -0.3577   -3.5151 O   0  0
   -3.6349   -0.5734   -2.8188 O   0  0
   -3.1120    0.3011   -3.8073 C   0  0
   -2.4397   -3.8774   -5.7123 H   0  0
   -2.2807   -5.2191   -4.6013 H   0  0
   -1.5727   -3.6457   -4.2080 H   0  0
   -3.8839   -2.6689   -4.2548 H   0  0
   -4.5658   -4.2245   -4.4983 H   0  0
   -4.7779   -6.0067   -2.4614 H   0  0
   -2.8671   -7.2442   -1.9296 H   0  0
   -0.7761   -6.1417   -1.1266 H   0  0
   -0.9279   -5.3022   -2.6821 H   0  0
   -2.2480   -5.4257    0.7022 H   0  0
   -1.0082   -4.1412    1.0233 H   0  0
   -3.9757   -3.9993    0.8902 H   0  0
   -2.9501   -2.9586    1.8291 H   0  0
   -2.1664   -2.6222   -2.2095 H   0  0
   -5.1287   -2.0771    0.5148 H   0  0
   -5.0548    1.5410    0.8373 H   0  0
   -6.2024    0.2138    0.7476 H   0  0
   -5.5858    0.9652   -0.7364 H   0  0
   -2.7025    2.0630    0.6371 H   0  0
    0.0716    4.3191    1.1205 H   0  0
   -1.2729    3.4479    1.8475 H   0  0
   -1.3100    3.8836    0.1218 H   0  0
   -0.2965   -2.1244   -0.2671 H   0  0
    3.1131   -0.1232    1.4678 H   0  0
    1.8387    0.9414    1.7916 H   0  0
    0.3039   -0.9110    2.4392 H   0  0
    1.9247    0.4263    3.9709 H   0  0
    0.9265   -0.7400    4.5997 H   0  0
    3.6088   -0.5821    5.0633 H   0  0
    4.3803   -1.2275    2.8554 H   0  0
    4.7236   -2.5993    3.8846 H   0  0
    4.8875   -3.7784    1.8012 H   0  0
    3.4330   -4.3174    0.9748 H   0  0
    4.5060   -1.4084    0.6757 H   0  0
    5.0964   -2.6717   -0.2742 H   0  0
    0.6468   -1.0411   -2.4375 H   0  0
    0.7133   -3.0575   -4.4828 H   0  0
    1.9657   -5.1128   -5.0763 H   0  0
    3.8045   -5.9250   -3.6788 H   0  0
    4.4726   -4.7222   -1.6341 H   0  0
    1.0482   -3.1512    2.8373 H   0  0
    1.4546   -2.8367    1.1792 H   0  0
    3.4971   -3.5574    7.2993 H   0  0
    4.4515   -2.1514    6.8528 H   0  0
    4.4551   -3.5940    5.8374 H   0  0
    4.7886    2.9957   -0.4830 H   0  0
    3.2211    3.6031   -1.0232 H   0  0
    4.1503    2.5022   -2.0543 H   0  0
   -6.7689   -0.6227   -0.9632 H   0  0
   -5.9665   -3.4280   -2.8927 H   0  0
   -7.6725   -4.7907    0.9688 H   0  0
   -6.6436   -6.1589    0.5153 H   0  0
   -8.3397   -6.1227    0.0171 H   0  0
   -2.0304    0.3779   -3.6956 H   0  0
   -3.5359    1.3013   -3.7084 H   0  0
   -3.3247   -0.0696   -4.8111 H   0  0
    2.9733   -3.7821    3.1202 H   0  0
   -0.7913   -3.6595   -1.0440 H   0  0
  1  2  1  0
  1 61  1  0
  1 62  1  0
  1 63  1  0
  2  3  1  0
  2 64  1  0
  2 65  1  0
  3  4  1  0
  3 11  1  0
  3 52  1  0
  4  5  2  0
  4 66  1  0
  5  6  1  0
  5 67  1  0
  6  7  1  0
  6 68  1  0
  6 69  1  0
  7  8  1  0
  7 11  1  0
  7118  1  0
  8  9  1  0
  8 70  1  0
  8 71  1  0
  9 10  1  0
  9 72  1  0
  9 73  1  0
 10 11  1  0
 10 12  1  0
 10 22  1  0
 11 74  1  0
 12 13  1  0
 12 50  1  0
 12 75  1  0
 13 14  1  0
 13 15  1  0
 14 76  1  0
 14 77  1  0
 14 78  1  0
 15 16  2  0
 15 22  1  0
 16 17  1  0
 16 79  1  0
 17 18  1  0
 17 20  2  0
 18 19  1  0
 19 80  1  0
 19 81  1  0
 19 82  1  0
 20 21  1  0
 20 23  1  0
 21 22  2  0
 21 83  1  0
 23 24  1  0
 23 33  1  0
 23 46  1  0
 24 25  1  0
 24 84  1  0
 24 85  1  0
 25 26  1  0
 25 41  1  0
 25 86  1  0
 26 27  1  0
 26 87  1  0
 26 88  1  0
 27 28  1  0
 27 42  1  0
 27 89  1  0
 28 29  1  0
 28 90  1  0
 28 91  1  0
 29 30  1  0
 29 41  1  0
 29117  1  0
 30 31  1  0
 30 92  1  0
 30 93  1  0
 31 32  1  0
 31 94  1  0
 31 95  1  0
 32 33  2  0
 32 40  1  0
 33 34  1  0
 34 35  1  0
 34 96  1  0
 35 36  2  0
 35 40  1  0
 36 37  1  0
 36 97  1  0
 37 38  2  0
 37 98  1  0
 38 39  1  0
 38 99  1  0
 39 40  2  0
 39100  1  0
 41101  1  0
 41102  1  0
 42 43  1  0
 42 44  1  0
 42 45  1  0
 43103  1  0
 43104  1  0
 43105  1  0
 46 47  2  0
 46 48  1  0
 48 49  1  0
 49106  1  0
 49107  1  0
 49108  1  0
 50 51  1  0
 50 52  1  0
 50 57  1  0
 51109  1  0
 52 53  1  0
 52110  1  0
 53 54  1  0
 54 55  2  0
 54 56  1  0
 56111  1  0
 56112  1  0
 56113  1  0
 57 58  2  0
 57 59  1  0
 59 60  1  0
 60114  1  0
 60115  1  0
 60116  1  0
M  CHG  2   7   1  29   1
M  END
> <Mol2_MolInfo_Name>
10767

> <Mol2_MolInfo_Type>
SMALL

> <Mol2_MolInfo_Charge>
USER_CHARGES

> <Mol2_Substructures>
     1 UNK         1 GROUP             0       ****    0 ROOT    

> <Name>
10767

$$$$
10767
  SciTegic06232017503D

118126  0  0  0  0            999 V2000
   -1.2550   -3.0566   -3.4908 C   0  0
   -2.5298   -2.2593   -3.1590 C   0  0
   -3.6033   -2.9694   -2.2694 C   0  0  1  0  0  0
   -3.9843   -4.2653   -3.0205 C   0  0
   -3.9204   -5.5155   -2.5241 C   0  0
   -3.4997   -5.8433   -1.1052 C   0  0
   -3.7436   -4.5919   -0.2440 N   0  3  1  0  0  0
   -3.2615   -4.6474    1.2108 C   0  0
   -2.9325   -3.1894    1.5485 C   0  0
   -3.2390   -2.3119    0.3078 C   0  0  1  0  0  0
   -3.0522   -3.3449   -0.8317 C   0  0  2  0  0  0
   -4.6375   -1.6199    0.3683 C   0  0  1  0  0  0
   -4.3155   -0.2075    0.5999 N   0  0
   -5.0756    0.4047    1.6857 C   0  0
   -2.9895    0.0821    0.2997 C   0  0
   -2.3190    1.2924    0.1887 C   0  0
   -0.9278    1.3262   -0.0083 C   0  0
   -0.2324    2.5220   -0.0748 O   0  0
   -0.9254    3.7648   -0.0271 C   0  0
   -0.1991    0.1082   -0.0952 C   0  0
   -0.9209   -1.0969    0.0107 C   0  0
   -2.3053   -1.1189    0.1856 C   0  0
    1.3769    0.0832   -0.1589 C   0  0  1  0  0  0
    1.8961    0.6478    1.2162 C   0  0
    1.2582    0.1302    2.5462 C   0  0  2  0  0  0
    1.8278    0.8444    3.7894 C   0  0
    3.2464    0.3552    4.1480 C   0  0  2  0  0  0
    3.1435   -1.1312    4.5629 C   0  0
    2.4644   -1.9983    3.4676 N   0  3  2  0  0  0
    3.4527   -2.7344    2.5262 C   0  0
    3.9071   -1.9395    1.2871 C   0  0
    2.9999   -2.1266    0.0741 C   0  0
    1.9958   -1.3116   -0.4949 C   0  0
    1.5662   -1.9642   -1.6376 N   0  0
    2.1893   -3.1706   -1.8256 C   0  0
    2.0557   -4.1361   -2.8309 C   0  0
    2.8426   -5.2814   -2.7178 C   0  0
    3.7277   -5.4575   -1.6592 C   0  0
    3.8649   -4.4855   -0.6704 C   0  0
    3.0898   -3.3133   -0.7417 C   0  0
    1.1960   -1.4073    2.7927 C   0  0
    3.9534    1.2274    5.2253 C   0  0  1  0  0  0
    3.2123    1.2962    6.5752 C   0  0
    5.1840    0.7589    5.4396 F   0  0
    4.1010    2.4693    4.7614 F   0  0
    1.8637    1.0237   -1.3174 C   0  0
    2.8145    1.7987   -1.1757 O   0  0
    1.1396    0.8941   -2.4601 O   0  0
    1.4437    1.6771   -3.6044 C   0  0
   -5.6144   -1.9376   -0.8373 C   0  0  2  0  0  0
   -6.2157   -3.2026   -0.5832 O   0  0
   -4.8236   -1.9659   -2.1874 C   0  0  2  0  0  0
   -5.7102   -2.0936   -3.3181 O   0  0
   -5.7421   -1.1959   -4.3331 C   0  0
   -5.0560   -0.1782   -4.4324 O   0  0
   -6.7620   -1.5710   -5.3994 C   0  0
   -6.7927   -0.9024   -0.8942 C   0  0
   -7.9379   -1.1754   -0.5180 O   0  0
   -6.4240    0.2969   -1.4105 O   0  0
   -7.3658    1.3503   -1.5484 C   0  0
   -0.5724   -2.4506   -4.0874 H   0  0
   -1.4737   -3.9560   -4.0662 H   0  0
   -0.7171   -3.3568   -2.5947 H   0  0
   -2.2236   -1.3271   -2.6823 H   0  0
   -2.9723   -1.9598   -4.1097 H   0  0
   -4.3115   -4.1779   -4.0472 H   0  0
   -4.1997   -6.3291   -3.1780 H   0  0
   -4.1035   -6.6381   -0.6658 H   0  0
   -2.4423   -6.1084   -1.0584 H   0  0
   -4.0724   -5.0847    1.7940 H   0  0
   -2.3755   -5.2841    1.2364 H   0  0
   -3.4439   -2.8361    2.4448 H   0  0
   -1.8724   -3.1313    1.8013 H   0  0
   -2.0077   -3.6576   -0.8813 H   0  0
   -5.1372   -1.9869    1.2684 H   0  0
   -4.8355    1.4650    1.7694 H   0  0
   -4.8365   -0.0702    2.6379 H   0  0
   -6.1497    0.3212    1.5219 H   0  0
   -2.8884    2.2029    0.2919 H   0  0
   -0.2079    4.5781   -0.1345 H   0  0
   -1.4377    3.9012    0.9264 H   0  0
   -1.6465    3.8532   -0.8411 H   0  0
   -0.4105   -2.0460   -0.0129 H   0  0
    2.9770    0.6468    1.2452 H   0  0
    1.6973    1.7207    1.2315 H   0  0
    0.2118    0.4382    2.5247 H   0  0
    1.8419    1.9189    3.5994 H   0  0
    1.1609    0.7456    4.6473 H   0  0
    3.8691    0.4167    3.2581 H   0  0
    4.1172   -1.5652    4.7932 H   0  0
    2.5119   -1.2725    5.4409 H   0  0
    4.2967   -3.0178    3.1559 H   0  0
    2.9389   -3.6592    2.2590 H   0  0
    4.1688   -0.9225    1.5370 H   0  0
    4.8817   -2.3407    1.0058 H   0  0
    0.8652   -1.5565   -2.2396 H   0  0
    1.3795   -4.0126   -3.6631 H   0  0
    2.7663   -6.0507   -3.4725 H   0  0
    4.3224   -6.3581   -1.6080 H   0  0
    4.5660   -4.6370    0.1370 H   0  0
    0.4011   -1.6484    3.5000 H   0  0
    0.9986   -1.9940    1.8991 H   0  0
    3.7614    1.9174    7.2839 H   0  0
    3.1026    0.3131    7.0319 H   0  0
    2.2193    1.7334    6.4724 H   0  0
    0.7530    1.4353   -4.4121 H   0  0
    2.4581    1.4809   -3.9544 H   0  0
    1.3518    2.7420   -3.3860 H   0  0
   -6.8153   -3.4022   -1.3069 H   0  0
   -4.3910   -0.9642   -2.2395 H   0  0
   -6.4946   -2.5213   -5.8609 H   0  0
   -6.8026   -0.8096   -6.1785 H   0  0
   -7.7544   -1.6647   -4.9585 H   0  0
   -6.8816    2.2239   -1.9844 H   0  0
   -7.7770    1.6368   -0.5794 H   0  0
   -8.1885    1.0565   -2.2020 H   0  0
    2.1020   -2.7804    3.9948 H   0  0
   -4.7354   -4.3941   -0.2309 H   0  0
  1  2  1  0
  1 61  1  0
  1 62  1  0
  1 63  1  0
  2  3  1  0
  2 64  1  0
  2 65  1  0
  3  4  1  0
  3 11  1  0
  3 52  1  0
  4  5  2  0
  4 66  1  0
  5  6  1  0
  5 67  1  0
  6  7  1  0
  6 68  1  0
  6 69  1  0
  7  8  1  0
  7 11  1  0
  7118  1  0
  8  9  1  0
  8 70  1  0
  8 71  1  0
  9 10  1  0
  9 72  1  0
  9 73  1  0
 10 11  1  0
 10 12  1  0
 10 22  1  0
 11 74  1  0
 12 13  1  0
 12 50  1  0
 12 75  1  0
 13 14  1  0
 13 15  1  0
 14 76  1  0
 14 77  1  0
 14 78  1  0
 15 16  2  0
 15 22  1  0
 16 17  1  0
 16 79  1  0
 17 18  1  0
 17 20  2  0
 18 19  1  0
 19 80  1  0
 19 81  1  0
 19 82  1  0
 20 21  1  0
 20 23  1  0
 21 22  2  0
 21 83  1  0
 23 24  1  0
 23 33  1  0
 23 46  1  0
 24 25  1  0
 24 84  1  0
 24 85  1  0
 25 26  1  0
 25 41  1  0
 25 86  1  0
 26 27  1  0
 26 87  1  0
 26 88  1  0
 27 28  1  0
 27 42  1  0
 27 89  1  0
 28 29  1  0
 28 90  1  0
 28 91  1  0
 29 30  1  0
 29 41  1  0
 29117  1  0
 30 31  1  0
 30 92  1  0
 30 93  1  0
 31 32  1  0
 31 94  1  0
 31 95  1  0
 32 33  2  0
 32 40  1  0
 33 34  1  0
 34 35  1  0
 34 96  1  0
 35 36  2  0
 35 40  1  0
 36 37  1  0
 36 97  1  0
 37 38  2  0
 37 98  1  0
 38 39  1  0
 38 99  1  0
 39 40  2  0
 39100  1  0
 41101  1  0
 41102  1  0
 42 43  1  0
 42 44  1  0
 42 45  1  0
 43103  1  0
 43104  1  0
 43105  1  0
 46 47  2  0
 46 48  1  0
 48 49  1  0
 49106  1  0
 49107  1  0
 49108  1  0
 50 51  1  0
 50 52  1  0
 50 57  1  0
 51109  1  0
 52 53  1  0
 52110  1  0
 53 54  1  0
 54 55  2  0
 54 56  1  0
 56111  1  0
 56112  1  0
 56113  1  0
 57 58  2  0
 57 59  1  0
 59 60  1  0
 60114  1  0
 60115  1  0
 60116  1  0
M  CHG  2   7   1  29   1
M  END
> <Mol2_MolInfo_Name>
10767

> <Mol2_MolInfo_Type>
SMALL

> <Mol2_MolInfo_Charge>
USER_CHARGES

> <Mol2_Substructures>
     1 UNK         1 GROUP             0       ****    0 ROOT    

> <Name>
10767

$$$$
10767
  SciTegic06232017503D

118126  0  0  0  0            999 V2000
   -2.9456   -3.5612   -4.8653 C   0  0
   -2.4578   -3.4313   -3.4053 C   0  0
   -3.4110   -3.9041   -2.2510 C   0  0  1  0  0  0
   -3.4948   -5.4348   -2.4352 C   0  0
   -3.5698   -6.3250   -1.4341 C   0  0
   -3.5454   -5.9128    0.0143 C   0  0
   -2.5628   -4.7363    0.1397 N   0  3  2  0  0  0
   -2.4588   -4.0972    1.5251 C   0  0
   -3.4741   -2.9730    1.4339 C   0  0
   -3.3186   -2.3394    0.0305 C   0  0  1  0  0  0
   -2.7818   -3.5451   -0.8367 C   0  0  2  0  0  0
   -4.6069   -1.5860   -0.4141 C   0  0  1  0  0  0
   -4.4142   -0.2429    0.1501 N   0  0
   -5.4980    0.6899   -0.1398 C   0  0
   -3.0587    0.0650    0.1256 C   0  0
   -2.3789    1.2655    0.2986 C   0  0
   -0.9740    1.2974    0.3086 C   0  0
   -0.2699    2.4696    0.5192 O   0  0
   -0.9550    3.7091    0.6588 C   0  0
   -0.2496    0.0907    0.1349 C   0  0
   -0.9743   -1.1149    0.1296 C   0  0
   -2.3677   -1.1426    0.0874 C   0  0
    1.3135    0.0288    0.0585 C   0  0  1  0  0  0
    1.8803   -1.2360   -0.7546 C   0  0
    1.2137   -1.7987   -2.0685 C   0  0  2  0  0  0
    2.2054   -2.5829   -2.9745 C   0  0
    3.1931   -1.6846   -3.7853 C   0  0  2  0  0  0
    2.4433   -0.5348   -4.5201 C   0  0
    1.5416    0.1667   -3.4883 N   0  3  1  0  0  0
    0.9547    1.5316   -3.8863 C   0  0
    0.5966    2.2811   -2.5786 C   0  0
    1.7448    2.2331   -1.5706 C   0  0
    2.0238    1.3079   -0.5325 C   0  0
    3.2738    1.6540   -0.0498 N   0  0
    3.7782    2.7877   -0.6308 C   0  0
    4.9677    3.4887   -0.4040 C   0  0
    5.1937    4.6194   -1.1888 C   0  0
    4.2829    5.0307   -2.1577 C   0  0
    3.1023    4.3234   -2.3792 C   0  0
    2.8281    3.1823   -1.6039 C   0  0
    0.4666   -0.7827   -2.9391 C   0  0
    4.1128   -2.4795   -4.7527 C   0  0  1  0  0  0
    5.0414   -3.4632   -4.0186 C   0  0
    3.3793   -3.1461   -5.6457 F   0  0
    4.8774   -1.6343   -5.4469 F   0  0
    1.6526   -0.1365    1.5893 C   0  0
    1.9143   -1.2306    2.0982 O   0  0
    1.5950    1.0292    2.2863 O   0  0
    1.8529    1.0581    3.6822 C   0  0
   -5.0145   -1.7802   -1.9340 C   0  0  2  0  0  0
   -6.4044   -1.4635   -2.0179 O   0  0
   -4.8578   -3.2843   -2.3548 C   0  0  2  0  0  0
   -5.7685   -4.0660   -1.5533 O   0  0
   -6.8104   -4.7519   -2.0837 C   0  0
   -7.1112   -4.8214   -3.2755 O   0  0
   -7.6180   -5.4801   -1.0176 C   0  0
   -4.3281   -0.8385   -2.9778 C   0  0
   -3.2879   -0.2230   -2.7371 O   0  0
   -4.9780   -0.7863   -4.1709 O   0  0
   -4.4857    0.0178   -5.2332 C   0  0
   -2.1948   -3.1638   -5.5490 H   0  0
   -3.8637   -3.0084   -5.0518 H   0  0
   -3.1184   -4.5963   -5.1562 H   0  0
   -1.5172   -3.9812   -3.3305 H   0  0
   -2.1503   -2.4028   -3.2377 H   0  0
   -3.5773   -5.8468   -3.4295 H   0  0
   -3.6756   -7.3711   -1.6834 H   0  0
   -4.5301   -5.5915    0.3560 H   0  0
   -3.1631   -6.7024    0.6622 H   0  0
   -2.6463   -4.8531    2.2888 H   0  0
   -1.4249   -3.7611    1.6143 H   0  0
   -4.4601   -3.4295    1.5363 H   0  0
   -3.3878   -2.2493    2.2460 H   0  0
   -1.7210   -3.3875   -1.0257 H   0  0
   -5.4389   -2.0100    0.1521 H   0  0
   -5.3704    1.6011    0.4452 H   0  0
   -6.4649    0.2628    0.1289 H   0  0
   -5.5163    0.9761   -1.1912 H   0  0
   -2.9541    2.1695    0.4238 H   0  0
   -0.2237    4.5070    0.7860 H   0  0
   -1.6035    3.7123    1.5361 H   0  0
   -1.5448    3.9416   -0.2291 H   0  0
   -0.4377   -2.0490    0.1447 H   0  0
    2.9322   -1.0385   -0.9642 H   0  0
    1.9332   -2.1172   -0.1148 H   0  0
    0.4552   -2.5252   -1.7783 H   0  0
    2.7473   -3.3230   -2.3856 H   0  0
    1.6220   -3.1726   -3.6842 H   0  0
    3.8331   -1.1869   -3.0547 H   0  0
    3.1254    0.2203   -4.9142 H   0  0
    1.7962   -0.8869   -5.3256 H   0  0
    1.7615    2.0378   -4.4185 H   0  0
    0.1136    1.3504   -4.5572 H   0  0
    0.3351    3.3125   -2.8171 H   0  0
   -0.3181    1.8770   -2.1563 H   0  0
    3.7147    1.1210    0.6858 H   0  0
    5.6844    3.1767    0.3417 H   0  0
    6.0999    5.1893   -1.0434 H   0  0
    4.4960    5.9105   -2.7475 H   0  0
    2.4098    4.6561   -3.1381 H   0  0
   -0.0083   -1.2437   -3.8074 H   0  0
   -0.2968   -0.2248   -2.4101 H   0  0
    5.7271   -3.9441   -4.7172 H   0  0
    4.4847   -4.2575   -3.5221 H   0  0
    5.6452   -2.9545   -3.2663 H   0  0
    1.7575    2.0785    4.0534 H   0  0
    2.8634    0.7099    3.9013 H   0  0
    1.1437    0.4314    4.2250 H   0  0
   -6.5375   -0.5730   -1.6849 H   0  0
   -5.1859   -3.3775   -3.3907 H   0  0
   -6.9753   -6.1497   -0.4458 H   0  0
   -8.4128   -6.0723   -1.4722 H   0  0
   -8.0719   -4.7630   -0.3333 H   0  0
   -5.1365   -0.0776   -6.1023 H   0  0
   -3.4813   -0.2916   -5.5256 H   0  0
   -4.4548    1.0697   -4.9456 H   0  0
    2.1443    0.3882   -2.7077 H   0  0
   -1.6575   -5.1281   -0.0781 H   0  0
  1  2  1  0
  1 61  1  0
  1 62  1  0
  1 63  1  0
  2  3  1  0
  2 64  1  0
  2 65  1  0
  3  4  1  0
  3 11  1  0
  3 52  1  0
  4  5  2  0
  4 66  1  0
  5  6  1  0
  5 67  1  0
  6  7  1  0
  6 68  1  0
  6 69  1  0
  7  8  1  0
  7 11  1  0
  7118  1  0
  8  9  1  0
  8 70  1  0
  8 71  1  0
  9 10  1  0
  9 72  1  0
  9 73  1  0
 10 11  1  0
 10 12  1  0
 10 22  1  0
 11 74  1  0
 12 13  1  0
 12 50  1  0
 12 75  1  0
 13 14  1  0
 13 15  1  0
 14 76  1  0
 14 77  1  0
 14 78  1  0
 15 16  2  0
 15 22  1  0
 16 17  1  0
 16 79  1  0
 17 18  1  0
 17 20  2  0
 18 19  1  0
 19 80  1  0
 19 81  1  0
 19 82  1  0
 20 21  1  0
 20 23  1  0
 21 22  2  0
 21 83  1  0
 23 24  1  0
 23 33  1  0
 23 46  1  0
 24 25  1  0
 24 84  1  0
 24 85  1  0
 25 26  1  0
 25 41  1  0
 25 86  1  0
 26 27  1  0
 26 87  1  0
 26 88  1  0
 27 28  1  0
 27 42  1  0
 27 89  1  0
 28 29  1  0
 28 90  1  0
 28 91  1  0
 29 30  1  0
 29 41  1  0
 29117  1  0
 30 31  1  0
 30 92  1  0
 30 93  1  0
 31 32  1  0
 31 94  1  0
 31 95  1  0
 32 33  2  0
 32 40  1  0
 33 34  1  0
 34 35  1  0
 34 96  1  0
 35 36  2  0
 35 40  1  0
 36 37  1  0
 36 97  1  0
 37 38  2  0
 37 98  1  0
 38 39  1  0
 38 99  1  0
 39 40  2  0
 39100  1  0
 41101  1  0
 41102  1  0
 42 43  1  0
 42 44  1  0
 42 45  1  0
 43103  1  0
 43104  1  0
 43105  1  0
 46 47  2  0
 46 48  1  0
 48 49  1  0
 49106  1  0
 49107  1  0
 49108  1  0
 50 51  1  0
 50 52  1  0
 50 57  1  0
 51109  1  0
 52 53  1  0
 52110  1  0
 53 54  1  0
 54 55  2  0
 54 56  1  0
 56111  1  0
 56112  1  0
 56113  1  0
 57 58  2  0
 57 59  1  0
 59 60  1  0
 60114  1  0
 60115  1  0
 60116  1  0
M  CHG  2   7   1  29   1
M  END
> <Mol2_MolInfo_Name>
10767

> <Mol2_MolInfo_Type>
SMALL

> <Mol2_MolInfo_Charge>
USER_CHARGES

> <Mol2_Substructures>
     1 UNK         1 GROUP             0       ****    0 ROOT    

> <Name>
10767

$$$$
10767
  SciTegic06232017503D

118126  0  0  0  0            999 V2000
   -3.0113   -1.3749   -4.5931 C   0  0
   -2.6477   -1.9021   -3.1903 C   0  0
   -3.6734   -2.8047   -2.4296 C   0  0  1  0  0  0
   -3.8464   -4.0736   -3.3004 C   0  0
   -3.6692   -5.3465   -2.8979 C   0  0
   -3.2880   -5.7474   -1.4866 C   0  0
   -3.6465   -4.5818   -0.5468 N   0  3  1  0  0  0
   -3.1689   -4.7107    0.9045 C   0  0
   -2.8924   -3.2695    1.3404 C   0  0
   -3.2362   -2.3089    0.1724 C   0  0  1  0  0  0
   -3.0504   -3.2492   -1.0454 C   0  0  2  0  0  0
   -4.6393   -1.6458    0.3073 C   0  0  1  0  0  0
   -4.3592   -0.2206    0.5416 N   0  0
   -5.1385    0.3496    1.6400 C   0  0
   -3.0185    0.0886    0.3353 C   0  0
   -2.3492    1.3065    0.3683 C   0  0
   -0.9517    1.3658    0.2279 C   0  0
   -0.2567    2.5523    0.3808 O   0  0
   -0.9493    3.7762    0.6007 C   0  0
   -0.2218    0.1727   -0.0150 C   0  0
   -0.9358   -1.0422   -0.0216 C   0  0
   -2.3215   -1.0944    0.1371 C   0  0
    1.3451    0.1293   -0.1129 C   0  0  1  0  0  0
    1.9214   -1.1047   -0.9629 C   0  0
    1.2725   -1.6170   -2.3025 C   0  0  2  0  0  0
    2.2762   -2.3683   -3.2238 C   0  0
    3.2551   -1.4415   -4.0112 C   0  0  2  0  0  0
    2.5261   -0.2512   -4.7003 C   0  0
    1.6214    0.4087   -3.6445 N   0  3  1  0  0  0
    1.0265    1.7835   -3.9968 C   0  0
    0.6470    2.4811   -2.6661 C   0  0
    1.7858    2.3975   -1.6528 C   0  0
    2.0570    1.4327   -0.6501 C   0  0
    3.3045    1.7621   -0.1472 N   0  0
    3.8123    2.9171   -0.6810 C   0  0
    4.9997    3.6096   -0.4202 C   0  0
    5.2304    4.7687   -1.1610 C   0  0
    4.3267    5.2142   -2.1215 C   0  0
    3.1482    4.5150   -2.3771 C   0  0
    2.8691    3.3469   -1.6449 C   0  0
    0.5441   -0.5606   -3.1379 C   0  0
    4.2260   -2.1998   -4.9577 C   0  0  1  0  0  0
    3.5226   -2.9146   -6.1270 C   0  0
    5.1180   -1.3439   -5.4588 F   0  0
    4.9198   -3.1011   -4.2612 F   0  0
    1.6937   -0.0837    1.4118 C   0  0
    2.0027   -1.1844    1.8781 O   0  0
    1.5923    1.0518    2.1537 O   0  0
    1.8504    1.0371    3.5498 C   0  0
   -5.6857   -2.0132   -0.8235 C   0  0  2  0  0  0
   -6.1884   -3.3159   -0.5356 O   0  0
   -5.0351   -2.0033   -2.2556 C   0  0  2  0  0  0
   -6.0071   -2.4002   -3.2488 O   0  0
   -6.5585   -1.5550   -4.1528 C   0  0
   -6.3445   -0.3476   -4.2577 O   0  0
   -7.5356   -2.2683   -5.0775 C   0  0
   -6.9039   -1.0246   -0.7644 C   0  0
   -6.8513    0.0790   -1.3144 O   0  0
   -7.9758   -1.4717   -0.0560 O   0  0
   -9.1429   -0.6734    0.0757 C   0  0
   -2.1638   -0.8469   -5.0304 H   0  0
   -3.8292   -0.6600   -4.5548 H   0  0
   -3.2817   -2.1690   -5.2875 H   0  0
   -1.7056   -2.4450   -3.2793 H   0  0
   -2.4183   -1.0324   -2.5756 H   0  0
   -4.1508   -3.9526   -4.3296 H   0  0
   -3.8276   -6.1280   -3.6271 H   0  0
   -3.8492   -6.6123   -1.1310 H   0  0
   -2.2171   -5.9440   -1.4150 H   0  0
   -3.9706   -5.2057    1.4534 H   0  0
   -2.2602   -5.3151    0.9027 H   0  0
   -3.4018   -3.0023    2.2670 H   0  0
   -1.8325   -3.1972    1.5898 H   0  0
   -1.9894   -3.4881   -1.1643 H   0  0
   -5.0690   -2.0270    1.2371 H   0  0
   -4.9550    1.4213    1.7211 H   0  0
   -4.8548   -0.1090    2.5881 H   0  0
   -6.2103    0.2129    1.5060 H   0  0
   -2.9246    2.1996    0.5558 H   0  0
   -0.2251    4.5885    0.6611 H   0  0
   -1.5051    3.7594    1.5391 H   0  0
   -1.6303    4.0039   -0.2205 H   0  0
   -0.4027   -1.9749   -0.1101 H   0  0
    2.9763   -0.9010   -1.1516 H   0  0
    1.9631   -2.0094   -0.3557 H   0  0
    0.5052   -2.3485   -2.0487 H   0  0
    2.8328   -3.1133   -2.6529 H   0  0
    1.6972   -2.9531   -3.9396 H   0  0
    3.8792   -0.9717   -3.2489 H   0  0
    3.2204    0.5140   -5.0509 H   0  0
    1.8786   -0.5518   -5.5251 H   0  0
    1.8358    2.3149   -4.4998 H   0  0
    0.1949    1.6232   -4.6848 H   0  0
    0.3843    3.5201   -2.8677 H   0  0
   -0.2691    2.0588   -2.2634 H   0  0
    3.7414    1.2017    0.5704 H   0  0
    5.7115    3.2701    0.3181 H   0  0
    6.1348    5.3336   -0.9879 H   0  0
    4.5433    6.1146   -2.6777 H   0  0
    2.4612    4.8742   -3.1287 H   0  0
    0.0782   -0.9825   -4.0297 H   0  0
   -0.2190   -0.0240   -2.5873 H   0  0
    4.2514   -3.4169   -6.7642 H   0  0
    2.9720   -2.2174   -6.7581 H   0  0
    2.8257   -3.6767   -5.7797 H   0  0
    1.7116    2.0370    3.9610 H   0  0
    2.8746    0.7230    3.7564 H   0  0
    1.1685    0.3603    4.0666 H   0  0
   -6.8066   -3.5608   -1.2290 H   0  0
   -4.7928   -0.9553   -2.4436 H   0  0
   -7.0208   -3.0392   -5.6509 H   0  0
   -7.9897   -1.5650   -5.7758 H   0  0
   -8.3305   -2.7374   -4.4976 H   0  0
   -9.8881   -1.2029    0.6692 H   0  0
   -9.5792   -0.4548   -0.9000 H   0  0
   -8.9178    0.2702    0.5747 H   0  0
    2.2196    0.6021   -2.8531 H   0  0
   -4.6502   -4.4594   -0.5287 H   0  0
  1  2  1  0
  1 61  1  0
  1 62  1  0
  1 63  1  0
  2  3  1  0
  2 64  1  0
  2 65  1  0
  3  4  1  0
  3 11  1  0
  3 52  1  0
  4  5  2  0
  4 66  1  0
  5  6  1  0
  5 67  1  0
  6  7  1  0
  6 68  1  0
  6 69  1  0
  7  8  1  0
  7 11  1  0
  7118  1  0
  8  9  1  0
  8 70  1  0
  8 71  1  0
  9 10  1  0
  9 72  1  0
  9 73  1  0
 10 11  1  0
 10 12  1  0
 10 22  1  0
 11 74  1  0
 12 13  1  0
 12 50  1  0
 12 75  1  0
 13 14  1  0
 13 15  1  0
 14 76  1  0
 14 77  1  0
 14 78  1  0
 15 16  2  0
 15 22  1  0
 16 17  1  0
 16 79  1  0
 17 18  1  0
 17 20  2  0
 18 19  1  0
 19 80  1  0
 19 81  1  0
 19 82  1  0
 20 21  1  0
 20 23  1  0
 21 22  2  0
 21 83  1  0
 23 24  1  0
 23 33  1  0
 23 46  1  0
 24 25  1  0
 24 84  1  0
 24 85  1  0
 25 26  1  0
 25 41  1  0
 25 86  1  0
 26 27  1  0
 26 87  1  0
 26 88  1  0
 27 28  1  0
 27 42  1  0
 27 89  1  0
 28 29  1  0
 28 90  1  0
 28 91  1  0
 29 30  1  0
 29 41  1  0
 29117  1  0
 30 31  1  0
 30 92  1  0
 30 93  1  0
 31 32  1  0
 31 94  1  0
 31 95  1  0
 32 33  2  0
 32 40  1  0
 33 34  1  0
 34 35  1  0
 34 96  1  0
 35 36  2  0
 35 40  1  0
 36 37  1  0
 36 97  1  0
 37 38  2  0
 37 98  1  0
 38 39  1  0
 38 99  1  0
 39 40  2  0
 39100  1  0
 41101  1  0
 41102  1  0
 42 43  1  0
 42 44  1  0
 42 45  1  0
 43103  1  0
 43104  1  0
 43105  1  0
 46 47  2  0
 46 48  1  0
 48 49  1  0
 49106  1  0
 49107  1  0
 49108  1  0
 50 51  1  0
 50 52  1  0
 50 57  1  0
 51109  1  0
 52 53  1  0
 52110  1  0
 53 54  1  0
 54 55  2  0
 54 56  1  0
 56111  1  0
 56112  1  0
 56113  1  0
 57 58  2  0
 57 59  1  0
 59 60  1  0
 60114  1  0
 60115  1  0
 60116  1  0
M  CHG  2   7   1  29   1
M  END
> <Mol2_MolInfo_Name>
10767

> <Mol2_MolInfo_Type>
SMALL

> <Mol2_MolInfo_Charge>
USER_CHARGES

> <Mol2_Substructures>
     1 UNK         1 GROUP             0       ****    0 ROOT    

> <Name>
10767

$$$$
10767
  SciTegic06232017503D

117125  0  0  0  0            999 V2000
   -4.3391   -0.9651   -4.3752 C   0  0
   -3.5308   -1.4781   -3.1653 C   0  0
   -4.0934   -2.6836   -2.3374 C   0  0  1  0  0  0
   -4.1072   -3.8879   -3.3113 C   0  0
   -3.5167   -5.0745   -3.0776 C   0  0
   -2.7552   -5.3620   -1.7997 C   0  0
   -3.1047   -4.4352   -0.7279 N   0  0  1  0  0  0
   -2.3299   -4.4487    0.4959 C   0  0
   -2.8048   -3.2088    1.2477 C   0  0
   -3.1622   -2.1755    0.1443 C   0  0  1  0  0  0
   -3.0907   -3.0343   -1.1553 C   0  0  2  0  0  0
   -4.5005   -1.4389    0.3982 C   0  0  1  0  0  0
   -4.2358   -0.0413    0.0081 N   0  0
   -5.2438    0.9060    0.4798 C   0  0
   -2.8671    0.2175    0.0908 C   0  0
   -2.1404    1.4021    0.0009 C   0  0
   -0.7337    1.3875   -0.0417 C   0  0
    0.0123    2.5542   -0.0625 O   0  0
   -0.6338    3.8226   -0.0559 C   0  0
   -0.0450    0.1458   -0.0579 C   0  0
   -0.8148   -1.0263    0.0546 C   0  0
   -2.2050   -1.0015    0.1008 C   0  0
    1.5289    0.0484   -0.1051 C   0  0  1  0  0  0
    2.0717    0.6046    1.2626 C   0  0
    1.4051    0.1423    2.5967 C   0  0  2  0  0  0
    2.0217    0.8371    3.8285 C   0  0
    3.4161    0.2758    4.1803 C   0  0  2  0  0  0
    3.2369   -1.1973    4.6146 C   0  0
    2.5013   -2.0387    3.5361 N   0  3  2  0  0  0
    3.4373   -2.8523    2.6039 C   0  0
    3.9313   -2.1156    1.3431 C   0  0
    2.9990   -2.2632    0.1448 C   0  0
    2.0567   -1.3837   -0.4279 C   0  0
    1.5585   -2.0171   -1.5534 N   0  0
    2.0438   -3.2882   -1.7002 C   0  0
    1.7679   -4.2757   -2.6522 C   0  0
    2.4467   -5.4866   -2.5199 C   0  0
    3.3592   -5.7041   -1.4917 C   0  0
    3.6282   -4.7135   -0.5486 C   0  0
    2.9627   -3.4769   -0.6375 C   0  0
    1.2622   -1.3868    2.8621 C   0  0
    4.1814    1.1210    5.2389 C   0  0  1  0  0  0
    3.4633    1.2413    6.5971 C   0  0
    5.3881    0.5903    5.4428 F   0  0
    4.3882    2.3486    4.7596 F   0  0
    2.0713    0.9297   -1.2867 C   0  0
    1.4001    1.1396   -2.3026 O   0  0
    3.3319    1.3918   -1.0913 O   0  0
    3.9707    2.1957   -2.0719 C   0  0
   -5.7205   -2.2141   -0.2399 C   0  0  2  0  0  0
   -5.7667   -3.5159    0.3372 O   0  0
   -5.5548   -2.3382   -1.8001 C   0  0  2  0  0  0
   -6.5706   -3.2236   -2.3178 O   0  0
   -7.4188   -2.8843   -3.3173 C   0  0
   -7.4754   -1.8015   -3.8989 O   0  0
   -8.3619   -4.0242   -3.6772 C   0  0
   -7.0774   -1.5632    0.1694 C   0  0
   -7.8391   -1.0544   -0.6579 O   0  0
   -7.3026   -1.5857    1.5094 O   0  0
   -8.4867   -1.0224    2.0539 C   0  0
   -3.7620   -0.2195   -4.9226 H   0  0
   -5.2621   -0.4751   -4.0707 H   0  0
   -4.5886   -1.7547   -5.0824 H   0  0
   -2.5316   -1.7331   -3.5236 H   0  0
   -3.3747   -0.6266   -2.5066 H   0  0
   -4.6391   -3.7983   -4.2465 H   0  0
   -3.5853   -5.8413   -3.8352 H   0  0
   -3.0037   -6.3758   -1.4850 H   0  0
   -1.6901   -5.3469   -2.0370 H   0  0
   -2.5318   -5.3782    1.0297 H   0  0
   -1.2571   -4.4533    0.2931 H   0  0
   -3.6595   -3.4931    1.8624 H   0  0
   -2.0221   -2.8634    1.9247 H   0  0
   -2.0901   -2.9088   -1.5788 H   0  0
   -4.6481   -1.4120    1.4812 H   0  0
   -4.8619    1.9264    0.4578 H   0  0
   -5.5521    0.6951    1.5047 H   0  0
   -6.1200    0.8964   -0.1661 H   0  0
   -2.6801    2.3349   -0.0394 H   0  0
    0.1210    4.6086   -0.0714 H   0  0
   -1.2353    3.9615    0.8436 H   0  0
   -1.2642    3.9549   -0.9364 H   0  0
   -0.3458   -1.9954    0.1011 H   0  0
    3.1494    0.5310    1.3042 H   0  0
    1.9374    1.6878    1.2538 H   0  0
    0.3777    0.5091    2.5694 H   0  0
    2.0945    1.9069    3.6250 H   0  0
    1.3577    0.7847    4.6928 H   0  0
    4.0339    0.2905    3.2849 H   0  0
    4.1878   -1.6807    4.8417 H   0  0
    2.6066   -1.2935    5.4995 H   0  0
    4.2669   -3.1728    3.2348 H   0  0
    2.8653   -3.7495    2.3613 H   0  0
    4.2597   -1.1114    1.5689 H   0  0
    4.8721   -2.5887    1.0586 H   0  0
    0.8793   -1.5661   -2.1499 H   0  0
    1.0627   -4.1166   -3.4549 H   0  0
    2.2622   -6.2756   -3.2345 H   0  0
    3.8673   -6.6553   -1.4253 H   0  0
    4.3408   -4.9024    0.2406 H   0  0
    0.4592   -1.5764    3.5756 H   0  0
    1.0284   -1.9725    1.9770 H   0  0
    4.0525    1.8417    7.2914 H   0  0
    3.3114    0.2693    7.0658 H   0  0
    2.4919    1.7260    6.5017 H   0  0
    4.9697    2.4687   -1.7319 H   0  0
    3.4099    3.1142   -2.2513 H   0  0
    4.0682    1.6578   -3.0159 H   0  0
   -4.9820   -3.9967    0.0584 H   0  0
   -5.7954   -1.3424   -2.1729 H   0  0
   -7.7979   -4.8709   -4.0684 H   0  0
   -9.0778   -3.7074   -4.4357 H   0  0
   -8.9150   -4.3502   -2.7963 H   0  0
   -8.4784   -1.1200    3.1394 H   0  0
   -9.3724   -1.5326    1.6732 H   0  0
   -8.5647    0.0381    1.8089 H   0  0
    2.0965   -2.7888    4.0787 H   0  0
  1  2  1  0
  1 61  1  0
  1 62  1  0
  1 63  1  0
  2  3  1  0
  2 64  1  0
  2 65  1  0
  3  4  1  0
  3 11  1  0
  3 52  1  0
  4  5  2  0
  4 66  1  0
  5  6  1  0
  5 67  1  0
  6  7  1  0
  6 68  1  0
  6 69  1  0
  7  8  1  0
  7 11  1  0
  8  9  1  0
  8 70  1  0
  8 71  1  0
  9 10  1  0
  9 72  1  0
  9 73  1  0
 10 11  1  0
 10 12  1  0
 10 22  1  0
 11 74  1  0
 12 13  1  0
 12 50  1  0
 12 75  1  0
 13 14  1  0
 13 15  1  0
 14 76  1  0
 14 77  1  0
 14 78  1  0
 15 16  2  0
 15 22  1  0
 16 17  1  0
 16 79  1  0
 17 18  1  0
 17 20  2  0
 18 19  1  0
 19 80  1  0
 19 81  1  0
 19 82  1  0
 20 21  1  0
 20 23  1  0
 21 22  2  0
 21 83  1  0
 23 24  1  0
 23 33  1  0
 23 46  1  0
 24 25  1  0
 24 84  1  0
 24 85  1  0
 25 26  1  0
 25 41  1  0
 25 86  1  0
 26 27  1  0
 26 87  1  0
 26 88  1  0
 27 28  1  0
 27 42  1  0
 27 89  1  0
 28 29  1  0
 28 90  1  0
 28 91  1  0
 29 30  1  0
 29 41  1  0
 29117  1  0
 30 31  1  0
 30 92  1  0
 30 93  1  0
 31 32  1  0
 31 94  1  0
 31 95  1  0
 32 33  2  0
 32 40  1  0
 33 34  1  0
 34 35  1  0
 34 96  1  0
 35 36  2  0
 35 40  1  0
 36 37  1  0
 36 97  1  0
 37 38  2  0
 37 98  1  0
 38 39  1  0
 38 99  1  0
 39 40  2  0
 39100  1  0
 41101  1  0
 41102  1  0
 42 43  1  0
 42 44  1  0
 42 45  1  0
 43103  1  0
 43104  1  0
 43105  1  0
 46 47  2  0
 46 48  1  0
 48 49  1  0
 49106  1  0
 49107  1  0
 49108  1  0
 50 51  1  0
 50 52  1  0
 50 57  1  0
 51109  1  0
 52 53  1  0
 52110  1  0
 53 54  1  0
 54 55  2  0
 54 56  1  0
 56111  1  0
 56112  1  0
 56113  1  0
 57 58  2  0
 57 59  1  0
 59 60  1  0
 60114  1  0
 60115  1  0
 60116  1  0
M  CHG  1  29   1
M  END
> <Mol2_MolInfo_Name>
10767

> <Mol2_MolInfo_Type>
SMALL

> <Mol2_MolInfo_Charge>
USER_CHARGES

> <Mol2_Substructures>
     1 UNK         1 GROUP             0       ****    0 ROOT    

> <Name>
10767

$$$$
10767
  SciTegic06232017503D

117125  0  0  0  0            999 V2000
   -4.3499   -0.7405   -4.2723 C   0  0
   -3.5801   -1.3563   -3.0859 C   0  0
   -4.1449   -2.6522   -2.4104 C   0  0  1  0  0  0
   -4.1146   -3.7472   -3.5055 C   0  0
   -3.4952   -4.9363   -3.3889 C   0  0
   -2.7434   -5.3380   -2.1366 C   0  0
   -3.1410   -4.5462   -0.9777 N   0  0  1  0  0  0
   -2.3902   -4.6698    0.2544 C   0  0
   -2.9222   -3.5366    1.1265 C   0  0
   -3.2991   -2.3988    0.1383 C   0  0  1  0  0  0
   -3.1699   -3.1071   -1.2443 C   0  0  2  0  0  0
   -4.6695   -1.7436    0.4551 C   0  0  1  0  0  0
   -4.4454   -0.2936    0.3122 N   0  0
   -5.4557    0.5280    0.9787 C   0  0
   -3.0828   -0.0095    0.3998 C   0  0
   -2.3979    1.2005    0.4753 C   0  0
   -0.9938    1.2428    0.4064 C   0  0
   -0.2883    2.4204    0.5800 O   0  0
   -0.9734    3.6474    0.8059 C   0  0
   -0.2717    0.0448    0.1708 C   0  0
   -0.9919   -1.1625    0.1651 C   0  0
   -2.3819   -1.1962    0.2382 C   0  0
    1.2871   -0.0085    0.0139 C   0  0  1  0  0  0
    1.8202   -1.2555   -0.8493 C   0  0
    1.1017   -1.7967   -2.1449 C   0  0  2  0  0  0
    2.0594   -2.5587   -3.1059 C   0  0
    2.9845   -1.6417   -3.9652 C   0  0  2  0  0  0
    2.2093   -0.4684   -4.6321 C   0  0
    1.3598    0.2038   -3.5389 N   0  3  1  0  0  0
    0.7473    1.5738   -3.8779 C   0  0
    0.4460    2.2931   -2.5393 C   0  0
    1.6392    2.2291   -1.5872 C   0  0
    1.9667    1.2850   -0.5815 C   0  0
    3.2361    1.6268   -0.1479 N   0  0
    3.7122    2.7717   -0.7309 C   0  0
    4.9096    3.4718   -0.5464 C   0  0
    5.0979    4.6160   -1.3215 C   0  0
    4.1434    5.0416   -2.2407 C   0  0
    2.9548    4.3359   -2.4198 C   0  0
    2.7183    3.1809   -1.6529 C   0  0
    0.3161   -0.7633   -2.9595 C   0  0
    3.9043   -2.4121   -4.9526 C   0  0  1  0  0  0
    3.1400   -3.1504   -6.0680 C   0  0
    4.7615   -1.5607   -5.5181 F   0  0
    4.6420   -3.2979   -4.2815 F   0  0
    1.7031   -0.1995    1.5229 C   0  0
    2.0267   -1.2951    1.9912 O   0  0
    1.6456    0.9480    2.2501 O   0  0
    1.9670    0.9516    3.6331 C   0  0
   -5.8516   -2.4406   -0.3274 C   0  0  2  0  0  0
   -5.8802   -3.7999    0.1007 O   0  0
   -5.6227   -2.3811   -1.8843 C   0  0  2  0  0  0
   -6.6170   -3.1942   -2.5423 O   0  0
   -7.4828   -2.7157   -3.4666 C   0  0
   -7.5752   -1.5519   -3.8562 O   0  0
   -8.4005   -3.8040   -4.0071 C   0  0
   -7.2392   -1.8626    0.1054 C   0  0
   -7.8155   -2.2499    1.1283 O   0  0
   -7.7316   -0.9207   -0.7349 O   0  0
   -8.9948   -0.3184   -0.4962 C   0  0
   -3.7740    0.0751   -4.7105 H   0  0
   -5.3025   -0.3137   -3.9645 H   0  0
   -4.5403   -1.4580   -5.0691 H   0  0
   -2.5641   -1.5553   -3.4288 H   0  0
   -3.4706   -0.5761   -2.3341 H   0  0
   -4.6374   -3.5731   -4.4339 H   0  0
   -3.5338   -5.6210   -4.2233 H   0  0
   -2.9645   -6.3873   -1.9378 H   0  0
   -1.6762   -5.2628   -2.3493 H   0  0
   -2.5706   -5.6586    0.6775 H   0  0
   -1.3144   -4.6175    0.0772 H   0  0
   -3.7777   -3.9203    1.6837 H   0  0
   -2.1658   -3.2422    1.8554 H   0  0
   -2.1634   -2.9084   -1.6228 H   0  0
   -4.8479   -1.8957    1.5230 H   0  0
   -5.0365    1.4802    1.3035 H   0  0
   -5.8698    0.0438    1.8642 H   0  0
   -6.2663    0.7711    0.2952 H   0  0
   -2.9685    2.1085    0.5902 H   0  0
   -0.2430    4.4484    0.9178 H   0  0
   -1.5677    3.6124    1.7202 H   0  0
   -1.6179    3.9050   -0.0360 H   0  0
   -0.4686   -2.1016    0.0882 H   0  0
    2.8622   -1.0516   -1.0992 H   0  0
    1.8997   -2.1491   -0.2299 H   0  0
    0.3576   -2.5331   -1.8412 H   0  0
    2.6515   -3.2900   -2.5536 H   0  0
    1.4463   -3.1607   -3.7775 H   0  0
    3.6479   -1.1545   -3.2482 H   0  0
    2.8776    0.2942   -5.0349 H   0  0
    1.5182   -0.7876   -5.4136 H   0  0
    1.5260    2.0967   -4.4351 H   0  0
   -0.1231    1.4033   -4.5135 H   0  0
    0.1695    3.3282   -2.7423 H   0  0
   -0.4459    1.8753   -2.0828 H   0  0
    3.7103    1.0811    0.5572 H   0  0
    5.6599    3.1489    0.1604 H   0  0
    6.0087    5.1859   -1.2079 H   0  0
    4.3279    5.9318   -2.8243 H   0  0
    2.2277    4.6799   -3.1405 H   0  0
   -0.1953   -1.2099   -3.8143 H   0  0
   -0.4244   -0.2210   -2.3831 H   0  0
    3.8342   -3.6575   -6.7393 H   0  0
    2.5477   -2.4675   -6.6766 H   0  0
    2.4706   -3.9121   -5.6691 H   0  0
    1.8705    1.9613    4.0321 H   0  0
    2.9921    0.6170    3.7982 H   0  0
    1.2944    0.2995    4.1922 H   0  0
   -6.0102   -3.8182    1.0515 H   0  0
   -5.8414   -1.3477   -2.1504 H   0  0
   -7.8142   -4.6045   -4.4580 H   0  0
   -9.0732   -3.4006   -4.7643 H   0  0
   -9.0020   -4.2246   -3.2012 H   0  0
   -9.2167    0.3972   -1.2878 H   0  0
   -9.0017    0.2138    0.4561 H   0  0
   -9.7882   -1.0668   -0.4829 H   0  0
    2.0003    0.4102   -2.7846 H   0  0
  1  2  1  0
  1 61  1  0
  1 62  1  0
  1 63  1  0
  2  3  1  0
  2 64  1  0
  2 65  1  0
  3  4  1  0
  3 11  1  0
  3 52  1  0
  4  5  2  0
  4 66  1  0
  5  6  1  0
  5 67  1  0
  6  7  1  0
  6 68  1  0
  6 69  1  0
  7  8  1  0
  7 11  1  0
  8  9  1  0
  8 70  1  0
  8 71  1  0
  9 10  1  0
  9 72  1  0
  9 73  1  0
 10 11  1  0
 10 12  1  0
 10 22  1  0
 11 74  1  0
 12 13  1  0
 12 50  1  0
 12 75  1  0
 13 14  1  0
 13 15  1  0
 14 76  1  0
 14 77  1  0
 14 78  1  0
 15 16  2  0
 15 22  1  0
 16 17  1  0
 16 79  1  0
 17 18  1  0
 17 20  2  0
 18 19  1  0
 19 80  1  0
 19 81  1  0
 19 82  1  0
 20 21  1  0
 20 23  1  0
 21 22  2  0
 21 83  1  0
 23 24  1  0
 23 33  1  0
 23 46  1  0
 24 25  1  0
 24 84  1  0
 24 85  1  0
 25 26  1  0
 25 41  1  0
 25 86  1  0
 26 27  1  0
 26 87  1  0
 26 88  1  0
 27 28  1  0
 27 42  1  0
 27 89  1  0
 28 29  1  0
 28 90  1  0
 28 91  1  0
 29 30  1  0
 29 41  1  0
 29117  1  0
 30 31  1  0
 30 92  1  0
 30 93  1  0
 31 32  1  0
 31 94  1  0
 31 95  1  0
 32 33  2  0
 32 40  1  0
 33 34  1  0
 34 35  1  0
 34 96  1  0
 35 36  2  0
 35 40  1  0
 36 37  1  0
 36 97  1  0
 37 38  2  0
 37 98  1  0
 38 39  1  0
 38 99  1  0
 39 40  2  0
 39100  1  0
 41101  1  0
 41102  1  0
 42 43  1  0
 42 44  1  0
 42 45  1  0
 43103  1  0
 43104  1  0
 43105  1  0
 46 47  2  0
 46 48  1  0
 48 49  1  0
 49106  1  0
 49107  1  0
 49108  1  0
 50 51  1  0
 50 52  1  0
 50 57  1  0
 51109  1  0
 52 53  1  0
 52110  1  0
 53 54  1  0
 54 55  2  0
 54 56  1  0
 56111  1  0
 56112  1  0
 56113  1  0
 57 58  2  0
 57 59  1  0
 59 60  1  0
 60114  1  0
 60115  1  0
 60116  1  0
M  CHG  1  29   1
M  END
> <Mol2_MolInfo_Name>
10767

> <Mol2_MolInfo_Type>
SMALL

> <Mol2_MolInfo_Charge>
USER_CHARGES

> <Mol2_Substructures>
     1 UNK         1 GROUP             0       ****    0 ROOT    

> <Name>
10767

$$$$
10781
  SciTegic06232017503D

 28 28  0  0  0  0            999 V2000
   -2.7895    0.1447    0.3122 N   0  0
   -1.9788    1.2920    0.1266 C   0  3
   -2.4485    2.4573    0.0244 N   0  0
   -0.5921    1.1645    0.0326 N   0  0
    0.0705    0.0815    0.1254 N   0  0
    1.4676    0.1548   -0.0087 C   0  0
    2.1952   -1.0226    0.1918 C   0  0
    3.5820   -1.0465    0.0716 C   0  0
    4.2813    0.1156   -0.2497 C   0  0
    5.6752    0.0471   -0.3765 N   0  0
    6.4428    1.1448    0.0493 N   0  0
    7.7919    1.2791   -0.0862 C   0  0
    8.2801    2.4395    0.4028 N   0  0
    8.8357    0.1739   -0.7721 S   0  0
    3.5706    1.3014   -0.4612 C   0  0
    2.1838    1.3201   -0.3403 C   0  0
   -3.7871    0.2601    0.2039 H   0  0
   -2.4831   -0.7195   -0.1110 H   0  0
    1.6818   -1.9401    0.4438 H   0  0
    4.1095   -1.9766    0.2307 H   0  0
    6.0811   -0.7867    0.0244 H   0  0
    5.8888    1.8772    0.4696 H   0  0
    7.6570    3.1134    0.8237 H   0  0
    4.0863    2.2130   -0.7272 H   0  0
    1.6719    2.2557   -0.5144 H   0  0
   -1.7426    3.1674   -0.1080 H   0  0
   -0.0874    2.0320   -0.1236 H   0  0
    9.2709    2.6275    0.3460 H   0  0
  1  2  1  0
  1 17  1  0
  1 18  1  0
  2  3  2  0
  2  4  1  0
  3 26  1  0
  4  5  2  0
  4 27  1  0
  5  6  1  0
  6  7  2  0
  6 16  1  0
  7  8  1  0
  7 19  1  0
  8  9  2  0
  8 20  1  0
  9 10  1  0
  9 15  1  0
 10 11  1  0
 10 21  1  0
 11 12  1  0
 11 22  1  0
 12 13  1  0
 12 14  2  0
 13 23  1  0
 13 28  1  0
 15 16  2  0
 15 24  1  0
 16 25  1  0
M  CHG  1   2   1
M  END
> <Mol2_MolInfo_Name>
10781

> <Mol2_MolInfo_Type>
SMALL

> <Mol2_MolInfo_Charge>
USER_CHARGES

> <Mol2_Substructures>
     1 UNK         1 GROUP             0       ****    0 ROOT    

> <Name>
10781

$$$$
10781
  SciTegic06232017503D

 28 28  0  0  0  0            999 V2000
   -2.4892    2.6280   -0.1572 N   0  0
   -1.9811    1.3244    0.0350 C   0  3
   -2.7228    0.3266    0.2729 N   0  0
   -0.5900    1.1794   -0.0404 N   0  0
    0.0772    0.1004    0.1047 N   0  0
    1.4747    0.1690   -0.0259 C   0  0
    2.1973   -1.0090    0.1883 C   0  0
    3.5845   -1.0388    0.0751 C   0  0
    4.2894    0.1183   -0.2520 C   0  0
    5.6837    0.0443   -0.3706 N   0  0
    6.4521    1.1412    0.0563 N   0  0
    7.8021    1.2723   -0.0738 C   0  0
    8.2905    2.4337    0.4126 N   0  0
    8.8468    0.1626   -0.7511 S   0  0
    3.5839    1.3047   -0.4770 C   0  0
    2.1964    1.3293   -0.3634 C   0  0
   -3.4641    2.7858    0.0547 H   0  0
   -1.9257    3.4043    0.1584 H   0  0
   -3.7054    0.5588    0.3034 H   0  0
    1.6789   -1.9223    0.4453 H   0  0
    4.1076   -1.9695    0.2444 H   0  0
    6.0840   -0.7892    0.0366 H   0  0
    5.8975    1.8763    0.4711 H   0  0
    7.6669    3.1116    0.8262 H   0  0
    4.1049    2.2118   -0.7476 H   0  0
    1.6891    2.2652   -0.5474 H   0  0
   -0.0817    2.0359   -0.2391 H   0  0
    9.2822    2.6184    0.3608 H   0  0
  1  2  1  0
  1 17  1  0
  1 18  1  0
  2  3  2  0
  2  4  1  0
  3 19  1  0
  4  5  2  0
  4 27  1  0
  5  6  1  0
  6  7  2  0
  6 16  1  0
  7  8  1  0
  7 20  1  0
  8  9  2  0
  8 21  1  0
  9 10  1  0
  9 15  1  0
 10 11  1  0
 10 22  1  0
 11 12  1  0
 11 23  1  0
 12 13  1  0
 12 14  2  0
 13 24  1  0
 13 28  1  0
 15 16  2  0
 15 25  1  0
 16 26  1  0
M  CHG  1   2   1
M  END
> <Mol2_MolInfo_Name>
10781

> <Mol2_MolInfo_Type>
SMALL

> <Mol2_MolInfo_Charge>
USER_CHARGES

> <Mol2_Substructures>
     1 UNK         1 GROUP             0       ****    0 ROOT    

> <Name>
10781

$$$$
10781
  SciTegic06232017503D

 28 28  0  0  0  0            999 V2000
    0.6029    2.1174   -1.5155 N   0  0
   -0.3814    2.2367   -0.5041 C   0  3
   -1.2924    3.1067   -0.5495 N   0  0
   -0.4116    1.3677    0.6067 N   0  0
    0.4475    0.5279    1.0967 N   0  0
    1.7759    0.5053    0.6546 C   0  0
    2.2464   -0.5824   -0.0856 C   0  0
    3.5680   -0.6266   -0.5214 C   0  0
    4.4483    0.4097   -0.2086 C   0  0
    5.7665    0.3346   -0.6778 N   0  0
    6.8002    0.8136    0.1460 N   0  0
    8.1163    0.9081   -0.1942 C   0  0
    8.9015    1.4137    0.7815 N   0  0
    8.7992    0.4674   -1.6505 S   0  0
    3.9857    1.4987    0.5390 C   0  0
    2.6634    1.5404    0.9716 C   0  0
    0.6665    2.8609   -2.1964 H   0  0
    1.5219    1.7968   -1.2453 H   0  0
    1.5828   -1.3988   -0.3334 H   0  0
    3.9044   -1.4745   -1.1012 H   0  0
    6.0335   -0.5836   -1.0039 H   0  0
    6.4761    1.1196    1.0522 H   0  0
    8.4977    1.6851    1.6663 H   0  0
    4.6452    2.3185    0.7851 H   0  0
    2.3255    2.3876    1.5516 H   0  0
   -1.9287    3.0699    0.2341 H   0  0
   -1.3086    1.3951    1.0824 H   0  0
    9.8931    1.5189    0.6197 H   0  0
  1  2  1  0
  1 17  1  0
  1 18  1  0
  2  3  2  0
  2  4  1  0
  3 26  1  0
  4  5  2  0
  4 27  1  0
  5  6  1  0
  6  7  2  0
  6 16  1  0
  7  8  1  0
  7 19  1  0
  8  9  2  0
  8 20  1  0
  9 10  1  0
  9 15  1  0
 10 11  1  0
 10 21  1  0
 11 12  1  0
 11 22  1  0
 12 13  1  0
 12 14  2  0
 13 23  1  0
 13 28  1  0
 15 16  2  0
 15 24  1  0
 16 25  1  0
M  CHG  1   2   1
M  END
> <Mol2_MolInfo_Name>
10781

> <Mol2_MolInfo_Type>
SMALL

> <Mol2_MolInfo_Charge>
USER_CHARGES

> <Mol2_Substructures>
     1 UNK         1 GROUP             0       ****    0 ROOT    

> <Name>
10781

$$$$
10781
  SciTegic06232017503D

 28 28  0  0  0  0            999 V2000
    0.6484    2.2477   -1.3476 N   0  0
   -0.3429    2.3013   -0.3373 C   0  3
   -1.2698    3.1549   -0.3447 N   0  0
   -0.3649    1.3840    0.7346 N   0  0
    0.4971    0.5244    1.1838 N   0  0
    1.8173    0.5048    0.7172 C   0  0
    2.2562   -0.5452   -0.0937 C   0  0
    3.5693   -0.5856   -0.5546 C   0  0
    4.4726    0.4162   -0.1983 C   0  0
    5.7807    0.3463   -0.6956 N   0  0
    6.8379    0.7624    0.1327 N   0  0
    8.1494    0.8494   -0.2270 C   0  0
    8.9622    1.2876    0.7586 N   0  0
    8.7972    0.4730   -1.7169 S   0  0
    4.0418    1.4669    0.6199 C   0  0
    2.7279    1.5045    1.0785 C   0  0
    0.7141    3.0274   -1.9866 H   0  0
    1.5666    1.9123   -1.0925 H   0  0
   -1.2240    3.7865   -1.1321 H   0  0
    1.5745   -1.3348   -0.3773 H   0  0
    3.8814   -1.4035   -1.1887 H   0  0
    6.0254   -0.5578   -1.0742 H   0  0
    6.5358    1.0279    1.0592 H   0  0
    8.5821    1.5092    1.6674 H   0  0
    4.7198    2.2597    0.9015 H   0  0
    2.4150    2.3213    1.7135 H   0  0
   -1.2571    1.3967    1.2203 H   0  0
    9.9508    1.3922    0.5802 H   0  0
  1  2  1  0
  1 17  1  0
  1 18  1  0
  2  3  2  0
  2  4  1  0
  3 19  1  0
  4  5  2  0
  4 27  1  0
  5  6  1  0
  6  7  2  0
  6 16  1  0
  7  8  1  0
  7 20  1  0
  8  9  2  0
  8 21  1  0
  9 10  1  0
  9 15  1  0
 10 11  1  0
 10 22  1  0
 11 12  1  0
 11 23  1  0
 12 13  1  0
 12 14  2  0
 13 24  1  0
 13 28  1  0
 15 16  2  0
 15 25  1  0
 16 26  1  0
M  CHG  1   2   1
M  END
> <Mol2_MolInfo_Name>
10781

> <Mol2_MolInfo_Type>
SMALL

> <Mol2_MolInfo_Charge>
USER_CHARGES

> <Mol2_Substructures>
     1 UNK         1 GROUP             0       ****    0 ROOT    

> <Name>
10781

$$$$
10817
  SciTegic06232017503D

 25 27  0  0  0  0            999 V2000
   -0.0237   -0.0399    0.0000 C   0  0
    1.4915    0.0132    0.0000 C   0  0  3  0  0  0
    2.1318   -1.1763    0.0000 N   0  0
    3.4681   -1.3412    0.0000 C   0  0
    4.3169   -0.2342    0.0000 C   0  0
    3.7316    1.0448    0.0000 C   0  0  3  0  0  0
    4.2601    2.3486    0.0000 C   0  0  3  0  0  0
    5.5714    2.8517    0.0000 C   0  0
    5.7574    4.2331    0.0000 C   0  0
    4.6714    5.1056    0.0000 C   0  0
    3.3546    4.6423    0.0000 C   0  0
    3.1662    3.2552    0.0000 C   0  0  3  0  0  0
    2.0084    2.5010    0.0000 N   0  0
    2.3126    1.1527    0.0000 C   0  0  3  0  0  0
   -0.4499    0.9639    0.0000 H   0  0
   -0.3900   -0.5610    0.8855 H   0  0
   -0.3900   -0.5610   -0.8855 H   0  0
    3.8131   -2.3649    0.0000 H   0  0
    5.3898   -0.3606    0.0000 H   0  0
    6.4232    2.1871    0.0000 H   0  0
    6.7604    4.6343    0.0000 H   0  0
    4.8539    6.1703    0.0000 H   0  0
    2.5240    5.3330    0.0000 H   0  0
    1.0731    2.8820    0.0000 H   0  0
    1.5609   -2.0095    0.0000 H   0  0
  1  2  1  0
  1 15  1  0
  1 16  1  0
  1 17  1  0
  2  3  4  0
  2 14  4  0
  3  4  4  0
  3 25  1  0
  4  5  4  0
  4 18  1  0
  5  6  4  0
  5 19  1  0
  6  7  4  0
  6 14  4  0
  7  8  4  0
  7 12  4  0
  8  9  4  0
  8 20  1  0
  9 10  4  0
  9 21  1  0
 10 11  4  0
 10 22  1  0
 11 12  4  0
 11 23  1  0
 12 13  4  0
 13 14  4  0
 13 24  1  0
M  END
> <Mol2_MolInfo_Name>
10817

> <Mol2_MolInfo_Type>
SMALL

> <Mol2_MolInfo_Charge>
USER_CHARGES

> <Mol2_Substructures>
     1 UNK         1 GROUP             0       ****    0 ROOT    

> <Name>
10817

$$$$
10853
  SciTegic06232017503D

 35 37  0  0  0  0            999 V2000
   -0.1470    0.3502   -0.0098 C   0  0
    1.3590    0.0294   -0.0314 N   0  3  2  0  0  0
    2.0926    0.5868    1.1984 C   0  0
    3.5115    0.7928    0.6970 C   0  0
    3.3705    1.2701   -0.7554 C   0  0  2  0  0  0
    3.2298    2.8101   -0.8179 C   0  0
    2.0935    0.5839   -1.2761 C   0  0  1  0  0  0
    2.5303   -0.4136   -2.2452 N   0  0
    1.4524   -0.7361   -3.1728 C   0  0
    3.8488   -0.1697   -2.6304 C   0  0
    4.6447   -0.7659   -3.6114 C   0  0
    5.9883   -0.4081   -3.7268 C   0  0
    6.5420    0.5244   -2.8477 C   0  0
    7.8626    0.8700   -2.9572 O   0  0
    5.7511    1.1023   -1.8527 C   0  0
    4.4004    0.7582   -1.7407 C   0  0
   -0.2611    1.4352   -0.0327 H   0  0
   -0.5508   -0.0804    0.9073 H   0  0
   -0.5848   -0.1185   -0.8912 H   0  0
    1.6175    1.5354    1.4547 H   0  0
    1.9805   -0.1210    2.0201 H   0  0
    4.0876    1.4869    1.3105 H   0  0
    4.0608   -0.1496    0.7375 H   0  0
    2.3771    3.1644   -0.2377 H   0  0
    3.0903    3.1577   -1.8428 H   0  0
    4.1191    3.3055   -0.4261 H   0  0
    1.4237    1.3155   -1.7359 H   0  0
    1.7785   -1.4962   -3.8831 H   0  0
    1.1441    0.1430   -3.7408 H   0  0
    0.5847   -1.1324   -2.6452 H   0  0
    4.2373   -1.5091   -4.2808 H   0  0
    6.5987   -0.8656   -4.4921 H   0  0
    8.3133    0.4160   -3.6729 H   0  0
    6.1904    1.8206   -1.1757 H   0  0
    1.4905   -0.9724   -0.0222 H   0  0
  1  2  1  0
  1 17  1  0
  1 18  1  0
  1 19  1  0
  2  3  1  0
  2  7  1  0
  2 35  1  0
  3  4  1  0
  3 20  1  0
  3 21  1  0
  4  5  1  0
  4 22  1  0
  4 23  1  0
  5  6  1  0
  5  7  1  0
  5 16  1  0
  6 24  1  0
  6 25  1  0
  6 26  1  0
  7  8  1  0
  7 27  1  0
  8  9  1  0
  8 10  1  0
  9 28  1  0
  9 29  1  0
  9 30  1  0
 10 11  2  0
 10 16  1  0
 11 12  1  0
 11 31  1  0
 12 13  2  0
 12 32  1  0
 13 14  1  0
 13 15  1  0
 14 33  1  0
 15 16  2  0
 15 34  1  0
M  CHG  1   2   1
M  END
> <Mol2_MolInfo_Name>
10853

> <Mol2_MolInfo_Type>
SMALL

> <Mol2_MolInfo_Charge>
USER_CHARGES

> <Mol2_Substructures>
     1 UNK         1 GROUP             0       ****    0 ROOT    

> <Name>
10853

$$$$
10853
  SciTegic06232017503D

 35 37  0  0  0  0            999 V2000
   -0.0065   -0.4462   -0.1483 C   0  0
    1.4647    0.0057   -0.0332 N   0  3  1  0  0  0
    1.8890    0.8847   -1.2196 C   0  0
    1.7557    2.3000   -0.6871 C   0  0
    2.1979    2.2291    0.7814 C   0  0  2  0  0  0
    3.7223    2.4682    0.9051 C   0  0
    1.8297    0.8054    1.2499 C   0  0  1  0  0  0
    0.8162    0.9606    2.2921 N   0  0
    0.8934   -0.1321    3.2553 C   0  0
    0.6721    2.3002    2.6511 C   0  0
   -0.1164    2.9059    3.6320 C   0  0
   -0.1424    4.2968    3.7396 C   0  0
    0.6040    5.0806    2.8579 C   0  0
    0.5741    6.4460    2.9604 O   0  0
    1.3798    4.4737    1.8686 C   0  0
    1.4182    3.0801    1.7616 C   0  0
   -0.6328    0.4467   -0.1205 H   0  0
   -0.2093   -1.1105    0.6911 H   0  0
   -0.1061   -0.9797   -1.0940 H   0  0
    2.9266    0.6037   -1.4046 H   0  0
    1.3037    0.6451   -2.1083 H   0  0
    2.3227    3.0340   -1.2618 H   0  0
    0.7160    2.6245   -0.7573 H   0  0
    4.2950    1.7567    0.3092 H   0  0
    4.0597    2.3711    1.9382 H   0  0
    3.9951    3.4690    0.5678 H   0  0
    2.7118    0.2841    1.6300 H   0  0
    0.0737   -0.0661    3.9713 H   0  0
    1.8299   -0.0924    3.8134 H   0  0
    0.8272   -1.1036    2.7650 H   0  0
   -0.7148    2.3122    4.3072 H   0  0
   -0.7499    4.7616    4.5026 H   0  0
    0.0152    6.7584    3.6756 H   0  0
    1.9529    5.0896    1.1906 H   0  0
    2.0308   -0.8310   -0.0529 H   0  0
  1  2  1  0
  1 17  1  0
  1 18  1  0
  1 19  1  0
  2  3  1  0
  2  7  1  0
  2 35  1  0
  3  4  1  0
  3 20  1  0
  3 21  1  0
  4  5  1  0
  4 22  1  0
  4 23  1  0
  5  6  1  0
  5  7  1  0
  5 16  1  0
  6 24  1  0
  6 25  1  0
  6 26  1  0
  7  8  1  0
  7 27  1  0
  8  9  1  0
  8 10  1  0
  9 28  1  0
  9 29  1  0
  9 30  1  0
 10 11  2  0
 10 16  1  0
 11 12  1  0
 11 31  1  0
 12 13  2  0
 12 32  1  0
 13 14  1  0
 13 15  1  0
 14 33  1  0
 15 16  2  0
 15 34  1  0
M  CHG  1   2   1
M  END
> <Mol2_MolInfo_Name>
10853

> <Mol2_MolInfo_Type>
SMALL

> <Mol2_MolInfo_Charge>
USER_CHARGES

> <Mol2_Substructures>
     1 UNK         1 GROUP             0       ****    0 ROOT    

> <Name>
10853

$$$$
10877
  SciTegic06232017503D

 65 68  0  0  0  0            999 V2000
   -2.3249    1.4448   -0.0960 C   0  0
   -0.7878    1.3178   -0.0129 C   0  0
   -0.2414   -0.1475   -0.0842 N   0  3  1  0  0  0
   -0.7105   -0.9160    1.1819 C   0  0
   -0.7690   -0.9159   -1.3373 C   0  0
   -0.3750   -0.2623   -2.6784 C   0  0
    1.3195   -0.0366   -0.0659 C   0  0
    2.0754   -1.3783   -0.2444 C   0  0
    3.6183   -1.2982   -0.1318 C   0  0
    4.1101   -0.6447    1.1354 N   0  0
    4.2538   -1.4130    2.2642 C   0  0  2  0  0  0
    3.9004   -2.8674    2.2245 C   0  0
    4.8341   -3.8111    1.7809 C   0  0
    4.5127   -5.1656    1.7690 C   0  0
    3.2590   -5.5801    2.2116 C   0  0
    2.3261   -4.6527    2.6688 C   0  0
    2.6495   -3.2987    2.6795 C   0  0
    4.7298   -0.8420    3.4793 C   0  0  1  0  0  0
    4.9028   -1.6150    4.6679 C   0  0
    5.3746   -1.0392    5.8415 C   0  0  3  0  0  0
    5.5343   -1.8210    6.9851 N   0  0
    5.6882    0.3110    5.8753 C   0  0
    5.5342    1.0997    4.7416 C   0  0
    5.0512    0.5466    3.5126 C   0  0  2  0  0  0
    4.8775    1.3285    2.3355 C   0  0  2  0  0  0
    5.1738    2.7285    2.3175 C   0  0
    4.9902    3.4935    1.1736 C   0  0
    4.5085    2.9162    0.0104 C   0  0  2  0  0  0
    4.3201    3.7017   -1.1260 N   0  0
    4.2104    1.5595   -0.0270 C   0  0
    4.3924    0.7278    1.1268 C   0  0  2  0  0  0
   -2.6142    2.4934   -0.0202 H   0  0
   -2.8358    0.9230    0.7120 H   0  0
   -2.7209    1.0827   -1.0443 H   0  0
   -0.3167    1.8674   -0.8286 H   0  0
   -0.4142    1.7320    0.9257 H   0  0
   -0.3129   -1.9293    1.1521 H   0  0
   -1.7989   -0.9620    1.1795 H   0  0
   -0.3468   -0.3822    2.0613 H   0  0
   -0.3845   -1.9333   -1.2620 H   0  0
   -1.8519   -0.9802   -1.2295 H   0  0
   -0.7682   -0.8474   -3.5104 H   0  0
    0.7051   -0.2099   -2.8115 H   0  0
   -0.7796    0.7441   -2.7813 H   0  0
    1.5831    0.6594   -0.8622 H   0  0
    1.5589    0.4333    0.8894 H   0  0
    1.7150   -2.1183    0.4636 H   0  0
    1.8525   -1.7924   -1.2271 H   0  0
    4.0556   -2.2921   -0.1973 H   0  0
    4.0762   -0.8111   -0.9882 H   0  0
    5.8102   -3.4933    1.4430 H   0  0
    5.2330   -5.8917    1.4213 H   0  0
    3.0100   -6.6313    2.2049 H   0  0
    1.3583   -4.9832    3.0166 H   0  0
    1.9259   -2.5821    3.0413 H   0  0
    4.6683   -2.6697    4.6634 H   0  0
    5.8933   -1.4012    7.8307 H   0  0
    5.3058   -2.8042    6.9515 H   0  0
    6.0556    0.7618    6.7863 H   0  0
    5.7947    2.1403    4.8344 H   0  0
    5.5457    3.2432    3.1870 H   0  0
    5.2230    4.5486    1.2014 H   0  0
    3.9946    3.2723   -1.9800 H   0  0
    4.5739    4.6791   -1.1022 H   0  0
    3.8241    1.1714   -0.9542 H   0  0
  1  2  1  0
  1 32  1  0
  1 33  1  0
  1 34  1  0
  2  3  1  0
  2 35  1  0
  2 36  1  0
  3  4  1  0
  3  5  1  0
  3  7  1  0
  4 37  1  0
  4 38  1  0
  4 39  1  0
  5  6  1  0
  5 40  1  0
  5 41  1  0
  6 42  1  0
  6 43  1  0
  6 44  1  0
  7  8  1  0
  7 45  1  0
  7 46  1  0
  8  9  1  0
  8 47  1  0
  8 48  1  0
  9 10  1  0
  9 49  1  0
  9 50  1  0
 10 11  4  0
 10 31  4  0
 11 12  1  0
 11 18  4  0
 12 13  2  0
 12 17  1  0
 13 14  1  0
 13 51  1  0
 14 15  2  0
 14 52  1  0
 15 16  1  0
 15 53  1  0
 16 17  2  0
 16 54  1  0
 17 55  1  0
 18 19  4  0
 18 24  4  0
 19 20  4  0
 19 56  1  0
 20 21  1  0
 20 22  4  0
 21 57  1  0
 21 58  1  0
 22 23  4  0
 22 59  1  0
 23 24  4  0
 23 60  1  0
 24 25  4  0
 25 26  4  0
 25 31  4  0
 26 27  4  0
 26 61  1  0
 27 28  4  0
 27 62  1  0
 28 29  1  0
 28 30  4  0
 29 63  1  0
 29 64  1  0
 30 31  4  0
 30 65  1  0
M  CHG  1   3   1
M  END
> <Mol2_MolInfo_Name>
10877

> <Mol2_MolInfo_Type>
SMALL

> <Mol2_MolInfo_Charge>
USER_CHARGES

> <Mol2_Substructures>
     1 UNK         1 GROUP             0       ****    0 ROOT    

> <Name>
10877

$$$$
10883
  SciTegic06232017503D

 23 23  0  0  0  0            999 V2000
   -4.2084    0.1901    0.1184 C   0  0
   -2.6966    0.0658    0.0639 C   0  0
   -2.1132   -1.1964   -0.0616 C   0  0
   -0.7274   -1.3198   -0.1156 C   0  0
    0.0746   -0.1783   -0.0454 C   0  0
   -0.5079    1.0851    0.0792 C   0  0
   -1.8937    1.2066    0.1333 C   0  0
    1.8587   -0.3328   -0.1130 S   0  0
    2.1702   -1.6091   -0.7665 O   0  0
    2.3884    0.9246   -0.6554 O   0  0
    2.3238   -0.4743    1.6202 C   0  0
    3.0708    0.4719    2.2137 C   0  0
    3.4622    0.4077    3.5822 C   0  0
    3.7871    0.3742    4.6924 N   0  0
   -4.5374    1.2302    0.1227 H   0  0
   -4.5961   -0.3033    1.0102 H   0  0
   -4.6564   -0.3002   -0.7467 H   0  0
   -2.7310   -2.0809   -0.1168 H   0  0
   -0.2839   -2.3003   -0.2103 H   0  0
    0.1073    1.9713    0.1362 H   0  0
   -2.3388    2.1865    0.2295 H   0  0
    1.9675   -1.3507    2.1412 H   0  0
    3.4038    1.3318    1.6516 H   0  0
  1  2  1  0
  1 15  1  0
  1 16  1  0
  1 17  1  0
  2  3  2  0
  2  7  1  0
  3  4  1  0
  3 18  1  0
  4  5  2  0
  4 19  1  0
  5  6  1  0
  5  8  1  0
  6  7  2  0
  6 20  1  0
  7 21  1  0
  8  9  2  0
  8 10  2  0
  8 11  1  0
 11 12  2  0
 11 22  1  0
 12 13  1  0
 12 23  1  0
 13 14  3  0
M  END
> <Mol2_MolInfo_Name>
10883

> <Mol2_MolInfo_Type>
SMALL

> <Mol2_MolInfo_Charge>
USER_CHARGES

> <Mol2_Substructures>
     1 UNK         1 GROUP             0       ****    0 ROOT    

> <Name>
10883

$$$$
10957
  SciTegic06232017503D

 56 60  0  0  0  0            999 V2000
   -0.5595   -0.8151   -1.2763 C   0  0
   -0.0162   -0.1450    0.0001 C   0  0  1  0  0  0
   -0.5593   -0.8151    1.2763 C   0  0
    1.5229   -0.0757    0.0000 C   0  0
    2.2605   -1.2631    0.0000 C   0  0
    3.6480   -1.2519    0.0000 C   0  0
    4.3451   -0.0510    0.0000 C   0  0
    3.6529    1.1897    0.0000 C   0  0
    4.3273    2.4520    0.0000 C   0  0
    3.5601    3.6171    0.0000 C   0  0
    2.1710    3.5342    0.0000 C   0  0
    1.5141    2.3484    0.0000 N   0  0
    2.2188    1.1800    0.0000 C   0  0
    1.3163    4.7612    0.0000 C   0  0
    1.6535    6.1102    0.0000 C   0  0
    0.4765    6.8646    0.0000 C   0  0
   -0.6101    5.9959    0.0000 C   0  0
   -0.0603    4.7350    0.0000 N   0  0
   -2.0840    6.2541    0.0000 C   0  0
   -2.5608    7.5675    0.0000 C   0  0
   -3.9301    7.8205    0.0000 C   0  0
   -4.8540    6.7647    0.0000 C   0  0
   -4.3683    5.4488    0.0000 C   0  0
   -2.9994    5.1967    0.0000 C   0  0
   -6.3313    7.0365    0.0000 C   0  0
   -7.1108    6.0558    0.0000 O   0  0
   -6.7107    8.2304    0.0000 O   0  5
    5.8060    2.5636    0.0000 C   0  0
    6.5056    2.6244    1.2088 C   0  0
    7.8934    2.7380    1.2100 C   0  0
    8.5814    2.7945    0.0000 C   0  0
    7.8934    2.7380   -1.2099 C   0  0
    6.5056    2.6244   -1.2087 C   0  0
   -0.1917   -0.3120   -2.1715 H   0  0
   -1.6489   -0.7770   -1.3068 H   0  0
   -0.2667   -1.8636   -1.3411 H   0  0
   -0.4350    0.8607    0.0000 H   0  0
   -0.1917   -0.3120    2.1715 H   0  0
   -0.2667   -1.8636    1.3411 H   0  0
   -1.6490   -0.7770    1.3068 H   0  0
    1.7510   -2.2157    0.0000 H   0  0
    4.1902   -2.1862    0.0000 H   0  0
    5.4252   -0.0677    0.0000 H   0  0
    4.0484    4.5811    0.0000 H   0  0
    2.6553    6.5137    0.0000 H   0  0
    0.4255    7.9433    0.0000 H   0  0
   -0.6049    3.8845    0.0000 H   0  0
   -1.8763    8.4030    0.0000 H   0  0
   -4.2622    8.8491    0.0000 H   0  0
   -5.0452    4.6062    0.0000 H   0  0
   -2.6595    4.1715    0.0000 H   0  0
    5.9733    2.5826    2.1482 H   0  0
    8.4332    2.7832    2.1444 H   0  0
    9.6577    2.8844    0.0000 H   0  0
    8.4332    2.7832   -2.1444 H   0  0
    5.9732    2.5826   -2.1482 H   0  0
  1  2  1  0
  1 34  1  0
  1 35  1  0
  1 36  1  0
  2  3  1  0
  2  4  1  0
  2 37  1  0
  3 38  1  0
  3 39  1  0
  3 40  1  0
  4  5  2  0
  4 13  1  0
  5  6  1  0
  5 41  1  0
  6  7  2  0
  6 42  1  0
  7  8  1  0
  7 43  1  0
  8  9  2  0
  8 13  1  0
  9 10  1  0
  9 28  1  0
 10 11  2  0
 10 44  1  0
 11 12  1  0
 11 14  1  0
 12 13  2  0
 14 15  2  0
 14 18  1  0
 15 16  1  0
 15 45  1  0
 16 17  2  0
 16 46  1  0
 17 18  1  0
 17 19  1  0
 18 47  1  0
 19 20  2  0
 19 24  1  0
 20 21  1  0
 20 48  1  0
 21 22  2  0
 21 49  1  0
 22 23  1  0
 22 25  1  0
 23 24  2  0
 23 50  1  0
 24 51  1  0
 25 26  2  0
 25 27  1  0
 28 29  2  0
 28 33  1  0
 29 30  1  0
 29 52  1  0
 30 31  2  0
 30 53  1  0
 31 32  1  0
 31 54  1  0
 32 33  2  0
 32 55  1  0
 33 56  1  0
M  CHG  1  27  -1
M  END
> <Mol2_MolInfo_Name>
10957

> <Mol2_MolInfo_Type>
SMALL

> <Mol2_MolInfo_Charge>
USER_CHARGES

> <Mol2_Substructures>
     1 UNK         1 GROUP             0       ****    0 ROOT    

> <Name>
10957

$$$$
11006
  SciTegic06232017503D

 27 28  0  0  0  0            999 V2000
   -4.3213   -0.0124    0.1023 C   0  0
   -2.8036   -0.0464    0.0904 C   0  0
   -2.0874    0.9969   -0.5001 C   0  0
   -0.6956    0.9616   -0.5178 C   0  0
   -0.0218   -0.1196    0.0534 C   0  0
   -0.7364   -1.1694    0.6339 C   0  0
   -2.1280   -1.1319    0.6519 C   0  0
    1.7676   -0.1624    0.0242 S   0  0
    2.2561    1.2213   -0.0040 O   0  0
    2.2262   -1.1167    1.0407 O   0  0
    2.1566   -0.8820   -1.5823 C   0  0
    1.9234   -0.1322   -2.6899 O   0  0
    2.2761   -0.8906   -3.7641 C   0  0
    2.7304   -2.1320   -3.3305 C   0  0
    2.6468   -2.1277   -1.9375 C   0  0
    2.1324   -0.3304   -5.0672 N   0  3
    2.4636   -1.0298   -6.0189 O   0  0
    1.6879    0.8098   -5.1567 O   0  5
   -4.7334   -1.0193    0.0214 H   0  0
   -4.7095    0.5534   -0.7455 H   0  0
   -4.6872    0.4391    1.0247 H   0  0
   -2.6053    1.8352   -0.9430 H   0  0
   -0.1468    1.7714   -0.9762 H   0  0
   -0.2211   -2.0126    1.0700 H   0  0
   -2.6777   -1.9452    1.1033 H   0  0
    3.0774   -2.9440   -3.9525 H   0  0
    2.9134   -2.9323   -1.2680 H   0  0
  1  2  1  0
  1 19  1  0
  1 20  1  0
  1 21  1  0
  2  3  2  0
  2  7  1  0
  3  4  1  0
  3 22  1  0
  4  5  2  0
  4 23  1  0
  5  6  1  0
  5  8  1  0
  6  7  2  0
  6 24  1  0
  7 25  1  0
  8  9  2  0
  8 10  2  0
  8 11  1  0
 11 12  1  0
 11 15  2  0
 12 13  1  0
 13 14  2  0
 13 16  1  0
 14 15  1  0
 14 26  1  0
 15 27  1  0
 16 17  2  0
 16 18  1  0
M  CHG  2  16   1  18  -1
M  END
> <Mol2_MolInfo_Name>
11006

> <Mol2_MolInfo_Type>
SMALL

> <Mol2_MolInfo_Charge>
USER_CHARGES

> <Mol2_Substructures>
     1 UNK         1 GROUP             0       ****    0 ROOT    

> <Name>
11006

$$$$
11016
  SciTegic06232017503D

 50 53  0  0  0  0            999 V2000
   -2.7115    4.0850   -0.0264 C   0  0
   -1.8376    2.9730   -0.1213 O   0  0
   -2.6074    1.7855   -0.1210 N   0  0
   -1.9381    0.6861   -0.1905 C   0  0
   -0.4702    0.6939   -0.2929 C   0  0
    0.1134    1.0950   -1.3003 O   0  0
    0.1331    0.2218    0.8174 N   0  0
    1.5621   -0.0164    1.0959 C   0  0  1  0  0  0
    1.8943   -1.4332    1.6538 C   0  0  1  0  0  0
    0.5913   -2.6568    2.0066 S   0  0
    1.6908   -4.1091    1.8466 C   0  0
    2.4558   -4.1459    0.5112 C   0  0
    2.7772   -2.9935   -0.1492 C   0  0
    2.4561   -1.7497    0.3217 N   0  0  3  0  0  0
    2.4818   -0.4223   -0.1082 C   0  0
    2.9988    0.1613   -1.0596 O   0  0
    3.5316   -3.0453   -1.5046 C   0  0
    2.8456   -3.4487   -2.4703 O   0  0
    4.7246   -2.6722   -1.4500 O   0  5
    2.7875   -5.5615    0.0280 C   0  0
    3.9659   -6.4417    1.1015 S   0  0
    3.8263   -8.1280    0.3653 C   0  0
    3.0901   -8.3953   -0.5848 O   0  0
    4.6672   -9.1292    1.0112 C   0  0
    4.5925  -10.4087    0.5529 O   0  0
    5.4534  -11.1526    1.2943 C   0  0
    6.0873  -10.3560    2.2325 C   0  0
    5.5880   -9.0649    2.0531 C   0  0
   -2.6557   -0.6141   -0.1659 C   0  0
   -4.0290   -0.7506    0.0769 C   0  0
   -4.4718   -2.4314    0.0174 S   0  0
   -2.8161   -2.7944   -0.3333 C   0  0
   -2.4188   -4.0864   -0.5172 N   0  0
   -2.0225   -1.7585   -0.4001 N   0  0
   -2.1226    5.0021   -0.0264 H   0  0
   -3.2898    4.0669    0.8995 H   0  0
   -3.3960    4.1353   -0.8753 H   0  0
   -0.4735    0.0308    1.6015 H   0  0
    1.9036    0.8279    1.6953 H   0  0
    2.6491   -1.4873    2.4418 H   0  0
    2.3815   -4.1210    2.6902 H   0  0
    1.0435   -4.9807    1.9491 H   0  0
    1.8511   -6.1198   -0.0110 H   0  0
    3.1844   -5.5866   -0.9854 H   0  0
    5.5095  -12.2032    1.0502 H   0  0
    6.8222  -10.6713    2.9584 H   0  0
    5.8669   -8.1871    2.6178 H   0  0
   -4.7634    0.0145    0.2829 H   0  0
   -1.4566   -4.3150   -0.7246 H   0  0
   -3.0667   -4.8580   -0.4528 H   0  0
  1  2  1  0
  1 35  1  0
  1 36  1  0
  1 37  1  0
  2  3  1  0
  3  4  2  0
  4  5  1  0
  4 29  1  0
  5  6  2  0
  5  7  1  0
  7  8  1  0
  7 38  1  0
  8  9  1  0
  8 15  1  0
  8 39  1  0
  9 10  1  0
  9 14  1  0
  9 40  1  0
 10 11  1  0
 11 12  1  0
 11 41  1  0
 11 42  1  0
 12 13  2  0
 12 20  1  0
 13 14  1  0
 13 17  1  0
 14 15  1  0
 15 16  2  0
 17 18  2  0
 17 19  1  0
 20 21  1  0
 20 43  1  0
 20 44  1  0
 21 22  1  0
 22 23  2  0
 22 24  1  0
 24 25  1  0
 24 28  2  0
 25 26  1  0
 26 27  2  0
 26 45  1  0
 27 28  1  0
 27 46  1  0
 28 47  1  0
 29 30  2  0
 29 34  1  0
 30 31  1  0
 30 48  1  0
 31 32  1  0
 32 33  1  0
 32 34  2  0
 33 49  1  0
 33 50  1  0
M  CHG  1  19  -1
M  END
> <Mol2_MolInfo_Name>
11016

> <Mol2_MolInfo_Type>
SMALL

> <Mol2_MolInfo_Charge>
USER_CHARGES

> <Mol2_Substructures>
     1 UNK         1 GROUP             0       ****    0 ROOT    

> <Name>
11016

$$$$
11027
  SciTegic06232017503D

 38 41  0  0  0  0            999 V2000
   -1.9356    0.4918    0.4448 O   0  0
   -0.0363    0.1291    0.1257 *   0  0
    2.0387    0.0188    0.1114 C   0  0
    2.6819   -1.2168    0.1443 C   0  0
    1.9291   -2.3599    0.2122 O   0  0
    4.0799   -1.2751    0.1067 C   0  0
    4.9941   -2.9483    0.1423 Br  0  0
    4.8266   -0.0963    0.0417 C   0  0
    4.1922    1.1541    0.0210 C   0  0
    4.9355    2.4432   -0.0491 C   0  0
    4.2340    3.6050   -0.0934 C   0  0
    4.8138    4.9447   -0.1604 C   0  0
    4.0557    6.0649   -0.2008 C   0  0
    4.9312    7.8346   -0.2945 Br  0  0
    2.5719    6.0283   -0.1779 C   0  0
    1.8629    7.0325   -0.2148 O   0  0
    2.0085    4.6635   -0.1018 C   0  0
    2.7733    3.5481   -0.0630 C   0  0
    2.0790    2.3797    0.0133 O   0  0
    2.7863    1.1913    0.0503 C   0  0
    6.4249    2.4422   -0.0807 C   0  0
    7.0837    2.1501    1.1214 C   0  0
    8.4734    2.1457    1.1972 C   0  0
    9.2290    2.4331    0.0664 C   0  0
    8.5938    2.7147   -1.1403 C   0  0
    7.1931    2.7154   -1.2425 C   0  0
    6.5745    2.9959   -2.5808 C   0  0
    7.1094    3.8794   -3.2886 O   0  0
    5.5731    2.3240   -2.9164 O   0  5
   -2.2453    1.3370    0.1116 H   0  0
    0.9847   -2.1936    0.2402 H   0  0
    5.9038   -0.1673    0.0060 H   0  0
    5.8876    5.0620   -0.1810 H   0  0
    0.9346    4.5465   -0.0739 H   0  0
    6.5132    1.9321    2.0133 H   0  0
    8.9633    1.9228    2.1336 H   0  0
   10.3076    2.4328    0.1220 H   0  0
    9.2073    2.9226   -2.0059 H   0  0
  1  2  1  0
  1 30  1  0
  2  3  1  0
  3  4  2  0
  3 20  1  0
  4  5  1  0
  4  6  1  0
  5 31  1  0
  6  7  1  0
  6  8  2  0
  8  9  1  0
  8 32  1  0
  9 10  1  0
  9 20  2  0
 10 11  2  0
 10 21  1  0
 11 12  1  0
 11 18  1  0
 12 13  2  0
 12 33  1  0
 13 14  1  0
 13 15  1  0
 15 16  2  0
 15 17  1  0
 17 18  2  0
 17 34  1  0
 18 19  1  0
 19 20  1  0
 21 22  2  0
 21 26  1  0
 22 23  1  0
 22 35  1  0
 23 24  2  0
 23 36  1  0
 24 25  1  0
 24 37  1  0
 25 26  2  0
 25 38  1  0
 26 27  1  0
 27 28  2  0
 27 29  1  0
M  CHG  1  29  -1
M  END
> <Mol2_MolInfo_Name>
11027

> <Mol2_MolInfo_Type>
SMALL

> <Mol2_MolInfo_Charge>
USER_CHARGES

> <Mol2_Substructures>
     1 UNK         1 GROUP             0       ****    0 ROOT    

> <Name>
11027

$$$$
11027
  SciTegic06232017503D

 37 40  0  0  0  0            999 V2000
   -1.9042    0.5447    0.2123 O   0  0
   -0.0030    0.0959    0.0446 *   0  0
    2.0714    0.0424   -0.0488 C   0  0
    2.7167   -1.1884   -0.1265 C   0  0
    2.0086   -2.2409   -0.1376 O   0  5
    4.1172   -1.2386   -0.1846 C   0  0
    5.0575   -2.8975   -0.2896 Br  0  0
    4.8559   -0.0529   -0.1650 C   0  0
    4.2159    1.1927   -0.0900 C   0  0
    4.9538    2.4865   -0.0594 C   0  0
    4.2494    3.6430    0.0386 C   0  0
    4.8244    4.9853    0.0788 C   0  0
    4.0639    6.1005    0.1766 C   0  0
    4.9336    7.8755    0.2230 Br  0  0
    2.5817    6.0541    0.2494 C   0  0
    1.8705    7.0530    0.3458 O   0  0
    2.0227    4.6866    0.1945 C   0  0
    2.7900    3.5765    0.0964 C   0  0
    2.0997    2.4040    0.0568 O   0  0
    2.8111    1.2207   -0.0305 C   0  0
    6.4429    2.4957   -0.0998 C   0  0
    7.1107    2.7337    1.1096 C   0  0
    8.5004    2.7101    1.1810 C   0  0
    9.2472    2.4390    0.0403 C   0  0
    8.6029    2.1974   -1.1703 C   0  0
    7.2019    2.2255   -1.2676 C   0  0
    6.5732    1.9807   -2.6079 C   0  0
    7.0875    1.0994   -3.3335 O   0  0
    5.5889    2.6831   -2.9307 O   0  5
   -2.1410    1.4151   -0.1158 H   0  0
    5.9332   -0.1154   -0.2091 H   0  0
    5.8961    5.1089    0.0234 H   0  0
    0.9499    4.5625    0.2324 H   0  0
    6.5460    2.9317    2.0098 H   0  0
    8.9968    2.8954    2.1220 H   0  0
   10.3256    2.4167    0.0924 H   0  0
    9.2095    1.9949   -2.0421 H   0  0
  1  2  1  0
  1 30  1  0
  2  3  1  0
  3  4  2  0
  3 20  1  0
  4  5  1  0
  4  6  1  0
  6  7  1  0
  6  8  2  0
  8  9  1  0
  8 31  1  0
  9 10  1  0
  9 20  2  0
 10 11  2  0
 10 21  1  0
 11 12  1  0
 11 18  1  0
 12 13  2  0
 12 32  1  0
 13 14  1  0
 13 15  1  0
 15 16  2  0
 15 17  1  0
 17 18  2  0
 17 33  1  0
 18 19  1  0
 19 20  1  0
 21 22  2  0
 21 26  1  0
 22 23  1  0
 22 34  1  0
 23 24  2  0
 23 35  1  0
 24 25  1  0
 24 36  1  0
 25 26  2  0
 25 37  1  0
 26 27  1  0
 27 28  2  0
 27 29  1  0
M  CHG  2   5  -1  29  -1
M  END
> <Mol2_MolInfo_Name>
11027

> <Mol2_MolInfo_Type>
SMALL

> <Mol2_MolInfo_Charge>
USER_CHARGES

> <Mol2_Substructures>
     1 UNK         1 GROUP             0       ****    0 ROOT    

> <Name>
11027

$$$$
11127
  SciTegic06232017503D

 56 56  0  0  0  0            999 V2000
   -5.3402    5.2826    0.9507 C   0  0
   -3.8673    4.8630    0.8505 C   0  0
   -3.6865    3.4401    0.2929 C   0  0
   -2.2045    3.0181    0.1943 C   0  0
   -1.9754    1.5499   -0.2417 C   0  0  2  0  0  0
   -0.5495    1.2103   -0.2324 N   0  0
   -0.0175    0.0882    0.2867 C   0  0
   -0.6807   -0.8224    0.7867 O   0  0
    1.5223   -0.0380    0.1873 C   0  0  2  0  0  0
    1.9141   -0.7845   -1.1172 C   0  0
    3.4296   -0.8165   -1.4329 C   0  0  2  0  0  0
    4.0224    0.5965   -1.6216 C   0  0
    3.7249   -1.7381   -2.6360 C   0  0
    2.1135   -0.7401    1.3403 N   0  0
    2.2141   -0.1263    2.5842 C   0  0
    1.8941    1.0342    2.8552 O   0  0
    2.7197   -1.0108    3.4646 O   0  0
    2.9155   -0.6518    4.8302 C   0  0
    3.4421   -1.8133    5.6702 C   0  0
    3.6485   -1.5955    7.0349 C   0  0
    4.1274   -2.6220    7.8448 C   0  0
    4.4006   -3.8690    7.2880 C   0  0
    4.1988   -4.0983    5.9292 C   0  0
    3.7199   -3.0718    5.1191 C   0  0
   -2.4097    1.3172   -1.6732 C   0  0
   -3.4463    0.7207   -1.9598 O   0  0
   -5.4317    6.2882    1.3622 H   0  0
   -5.9008    4.6081    1.5987 H   0  0
   -5.8195    5.2813   -0.0288 H   0  0
   -3.3350    5.5756    0.2187 H   0  0
   -3.4100    4.9301    1.8386 H   0  0
   -4.2213    2.7346    0.9309 H   0  0
   -4.1535    3.3824   -0.6913 H   0  0
   -1.6687    3.6980   -0.4716 H   0  0
   -1.7417    3.1547    1.1734 H   0  0
   -2.5489    0.9086    0.4327 H   0  0
    0.0686    1.9139   -0.6098 H   0  0
    1.9438    0.9690    0.1379 H   0  0
    1.5393   -1.8091   -1.0638 H   0  0
    1.4023   -0.3340   -1.9704 H   0  0
    3.9358   -1.2651   -0.5772 H   0  0
    4.7238    0.6523   -2.4538 H   0  0
    4.5668    0.9056   -0.7290 H   0  0
    3.2487    1.3421   -1.8059 H   0  0
    4.1116   -1.1955   -3.4989 H   0  0
    2.8339   -2.2677   -2.9746 H   0  0
    4.4643   -2.4946   -2.3709 H   0  0
    2.3250   -1.7233    1.2533 H   0  0
    3.6247    0.1755    4.8911 H   0  0
    1.9699   -0.3133    5.2574 H   0  0
    3.4374   -0.6294    7.4708 H   0  0
    4.2860   -2.4518    8.8996 H   0  0
    4.7719   -4.6656    7.9157 H   0  0
    4.4126   -5.0683    5.5051 H   0  0
    3.5691   -3.2670    4.0676 H   0  0
   -1.7641    1.7469   -2.4404 H   0  0
  1  2  1  0
  1 27  1  0
  1 28  1  0
  1 29  1  0
  2  3  1  0
  2 30  1  0
  2 31  1  0
  3  4  1  0
  3 32  1  0
  3 33  1  0
  4  5  1  0
  4 34  1  0
  4 35  1  0
  5  6  1  0
  5 25  1  0
  5 36  1  0
  6  7  1  0
  6 37  1  0
  7  8  2  0
  7  9  1  0
  9 10  1  0
  9 14  1  0
  9 38  1  0
 10 11  1  0
 10 39  1  0
 10 40  1  0
 11 12  1  0
 11 13  1  0
 11 41  1  0
 12 42  1  0
 12 43  1  0
 12 44  1  0
 13 45  1  0
 13 46  1  0
 13 47  1  0
 14 15  1  0
 14 48  1  0
 15 16  2  0
 15 17  1  0
 17 18  1  0
 18 19  1  0
 18 49  1  0
 18 50  1  0
 19 20  2  0
 19 24  1  0
 20 21  1  0
 20 51  1  0
 21 22  2  0
 21 52  1  0
 22 23  1  0
 22 53  1  0
 23 24  2  0
 23 54  1  0
 24 55  1  0
 25 26  2  0
 25 56  1  0
M  END
> <Mol2_MolInfo_Name>
11127

> <Mol2_MolInfo_Type>
SMALL

> <Mol2_MolInfo_Charge>
USER_CHARGES

> <Mol2_Substructures>
     1 UNK         1 GROUP             0       ****    0 ROOT    

> <Name>
11127

$$$$
11140
  SciTegic06232017503D

 32 33  0  0  0  0            999 V2000
   -0.4699    1.4681   -0.1270 C   0  0
    0.1482    0.1858   -0.1190 O   0  0
    1.5291    0.0955   -0.0866 C   0  0
    2.3864    1.2099   -0.0538 C   0  0
    3.7817    1.0593   -0.0268 C   0  0
    4.3166   -0.2376   -0.0248 C   0  0
    3.4796   -1.3499   -0.0557 C   0  0
    2.0954   -1.1863   -0.0867 C   0  0
    1.2981   -2.3022   -0.1180 O   0  0
    4.6571    2.2616    0.0078 C   0  0
    5.6707    2.4376    1.3366 S   0  0
    4.5479    3.1252   -1.0697 N   0  0
    4.0172    2.6871   -2.3840 C   0  0
    5.2199    2.6436   -3.3536 C   0  0
    5.8757    3.9072   -3.3998 O   0  0
    6.3828    4.3149   -2.1329 C   0  0
    5.2321    4.4399   -1.1106 C   0  0
   -1.5523    1.3453   -0.1587 H   0  0
   -0.1782    2.0476   -1.0041 H   0  0
   -0.2286    2.0341    0.7740 H   0  0
    1.9759    2.2089   -0.0484 H   0  0
    5.3864   -0.3915   -0.0058 H   0  0
    3.9120   -2.3401   -0.0564 H   0  0
    1.7993   -3.1206   -0.1112 H   0  0
    3.4637    1.7493   -2.4007 H   0  0
    3.3327    3.4773   -2.6955 H   0  0
    5.9262    1.8639   -3.0606 H   0  0
    4.8802    2.3798   -4.3553 H   0  0
    7.1405    3.6103   -1.7834 H   0  0
    6.8908    5.2734   -2.2400 H   0  0
    4.4875    5.1350   -1.5008 H   0  0
    5.5628    4.8365   -0.1507 H   0  0
  1  2  1  0
  1 18  1  0
  1 19  1  0
  1 20  1  0
  2  3  1  0
  3  4  2  0
  3  8  1  0
  4  5  1  0
  4 21  1  0
  5  6  2  0
  5 10  1  0
  6  7  1  0
  6 22  1  0
  7  8  2  0
  7 23  1  0
  8  9  1  0
  9 24  1  0
 10 11  2  0
 10 12  1  0
 12 13  1  0
 12 17  1  0
 13 14  1  0
 13 25  1  0
 13 26  1  0
 14 15  1  0
 14 27  1  0
 14 28  1  0
 15 16  1  0
 16 17  1  0
 16 29  1  0
 16 30  1  0
 17 31  1  0
 17 32  1  0
M  END
> <Mol2_MolInfo_Name>
11140

> <Mol2_MolInfo_Type>
SMALL

> <Mol2_MolInfo_Charge>
USER_CHARGES

> <Mol2_Substructures>
     1 UNK         1 GROUP             0       ****    0 ROOT    

> <Name>
11140

$$$$
11142
  SciTegic06232017503D

 26 27  0  0  0  0            999 V2000
   -1.4995    6.0601   -0.1633 O   0  5
   -0.8709    5.3035   -0.9385 C   0  0
   -0.6441    5.5619   -2.1428 O   0  0
   -0.3571    4.0061   -0.3903 C   0  0
   -0.5726    3.6372    0.9483 C   0  0
   -0.0825    2.4221    1.4302 C   0  0
    0.6161    1.5866    0.5574 C   0  0
    1.2622    0.0563    1.1715 S   0  0
    3.0603   -0.1647    0.2033 S   0  0
    2.6164   -0.8016   -1.3872 C   0  0
    3.2875   -0.3289   -2.5156 C   0  0
    2.9094   -0.8085   -3.7708 C   0  0
    1.8676   -1.7440   -3.8857 C   0  0
    1.2460   -2.1557   -2.6955 C   0  0
    1.6021   -1.7014   -1.4668 N   0  0
    1.4376   -2.2788   -5.2187 C   0  0
    0.4694   -3.0728   -5.2474 O   0  0
    2.0713   -1.9064   -6.2329 O   0  5
    0.8473    1.9216   -0.7384 N   0  0
    0.3629    3.1054   -1.1917 C   0  0
   -1.1159    4.2832    1.6234 H   0  0
   -0.2449    2.1400    2.4604 H   0  0
    4.0815    0.3979   -2.4264 H   0  0
    3.4291   -0.4437   -4.6452 H   0  0
    0.4359   -2.8709   -2.7023 H   0  0
    0.5714    3.3177   -2.2307 H   0  0
  1  2  1  0
  2  3  2  0
  2  4  1  0
  4  5  2  0
  4 20  1  0
  5  6  1  0
  5 21  1  0
  6  7  2  0
  6 22  1  0
  7  8  1  0
  7 19  1  0
  8  9  1  0
  9 10  1  0
 10 11  2  0
 10 15  1  0
 11 12  1  0
 11 23  1  0
 12 13  2  0
 12 24  1  0
 13 14  1  0
 13 16  1  0
 14 15  2  0
 14 25  1  0
 16 17  2  0
 16 18  1  0
 19 20  2  0
 20 26  1  0
M  CHG  2   1  -1  18  -1
M  END
> <Mol2_MolInfo_Name>
11142

> <Mol2_MolInfo_Type>
SMALL

> <Mol2_MolInfo_Charge>
USER_CHARGES

> <Mol2_Substructures>
     1 UNK         1 GROUP             0       ****    0 ROOT    

> <Name>
11142

$$$$
11188
  SciTegic06232017503D

 44 47  0  0  0  0            999 V2000
   -0.7230    1.3626    0.2445 C   0  0
   -0.1250   -0.0425    0.0450 C   0  0
    1.3793   -0.0205    0.0076 N   0  0
    2.0240   -0.0213   -1.2031 C   0  0  1  0  0  0
    1.2228    0.0054   -2.4656 C   0  0
    0.8087    1.2245   -3.0121 C   0  0
    0.0694    1.2497   -4.1916 C   0  0
   -0.2525    0.0539   -4.8288 C   0  0
    0.1599   -1.1659   -4.2979 C   0  0
    0.8988   -1.1892   -3.1182 C   0  0
    3.4469   -0.0351   -1.2702 C   0  0  3  0  0  0
    4.1508   -0.0486   -2.5124 C   0  0
    5.5401   -0.0658   -2.5542 C   0  0  3  0  0  0
    6.1995   -0.0789   -3.7828 N   0  0
    6.2707   -0.0697   -1.3754 C   0  0
    5.6252   -0.0542   -0.1447 C   0  0
    4.1968   -0.0335   -0.0570 C   0  0  1  0  0  0
    3.5058   -0.0040    1.1878 C   0  0  1  0  0  0
    4.2049    0.0151    2.4360 C   0  0
    3.5245    0.0561    3.6463 C   0  0
    2.1391    0.0826    3.6765 C   0  0  3  0  0  0
    1.4731    0.1319    4.9004 N   0  0
    1.4120    0.0621    2.4921 C   0  0
    2.0729    0.0117    1.2222 C   0  0  1  0  0  0
   -1.8114    1.3099    0.2768 H   0  0
   -0.4584    2.0317   -0.5737 H   0  0
   -0.3956    1.8237    1.1760 H   0  0
   -0.4287   -0.7402    0.8248 H   0  0
   -0.5191   -0.5099   -0.8547 H   0  0
    1.0616    2.1543   -2.5231 H   0  0
   -0.2513    2.1919   -4.6111 H   0  0
   -0.8257    0.0727   -5.7441 H   0  0
   -0.0919   -2.0888   -4.7994 H   0  0
    1.2188   -2.1369   -2.7094 H   0  0
    3.6004   -0.0472   -3.4424 H   0  0
    7.2093   -0.0900   -3.8068 H   0  0
    5.6606   -0.0741   -4.6370 H   0  0
    7.3511   -0.0832   -1.4046 H   0  0
    6.2488   -0.0571    0.7332 H   0  0
    5.2804    0.0023    2.4850 H   0  0
    4.0889    0.0718    4.5680 H   0  0
    0.4635    0.1527    4.9178 H   0  0
    2.0074    0.1515    5.7572 H   0  0
    0.3367    0.0954    2.5654 H   0  0
  1  2  1  0
  1 25  1  0
  1 26  1  0
  1 27  1  0
  2  3  1  0
  2 28  1  0
  2 29  1  0
  3  4  4  0
  3 24  4  0
  4  5  1  0
  4 11  4  0
  5  6  2  0
  5 10  1  0
  6  7  1  0
  6 30  1  0
  7  8  2  0
  7 31  1  0
  8  9  1  0
  8 32  1  0
  9 10  2  0
  9 33  1  0
 10 34  1  0
 11 12  4  0
 11 17  4  0
 12 13  4  0
 12 35  1  0
 13 14  1  0
 13 15  4  0
 14 36  1  0
 14 37  1  0
 15 16  4  0
 15 38  1  0
 16 17  4  0
 16 39  1  0
 17 18  4  0
 18 19  4  0
 18 24  4  0
 19 20  4  0
 19 40  1  0
 20 21  4  0
 20 41  1  0
 21 22  1  0
 21 23  4  0
 22 42  1  0
 22 43  1  0
 23 24  4  0
 23 44  1  0
M  END
> <Mol2_MolInfo_Name>
11188

> <Mol2_MolInfo_Type>
SMALL

> <Mol2_MolInfo_Charge>
USER_CHARGES

> <Mol2_Substructures>
     1 UNK         1 GROUP             0       ****    0 ROOT    

> <Name>
11188

$$$$
11201
  SciTegic06232017503D

 55 58  0  0  0  0            999 V2000
   -0.4436   -1.2084    3.7695 O   0  5
   -1.2625   -1.0557    2.8361 C   0  0
   -2.2811   -0.3313    2.8863 O   0  0
   -0.9879   -1.8190    1.5164 C   0  0  1  0  0  0
   -2.0935   -2.8006    1.0893 C   0  0
   -3.0397   -1.9925    0.1937 C   0  0
   -2.1759   -0.8999   -0.4545 C   0  0
   -0.7718   -1.0258    0.1909 C   0  0  1  0  0  0
   -0.0310    0.3333    0.3597 C   0  0
   -0.6841    1.3744    0.4670 O   0  0
    1.4699    0.3342    0.2878 C   0  0
    2.2195   -0.8478    0.3614 C   0  0
    3.6101   -0.8077    0.3087 C   0  0
    4.2884    0.4099    0.1866 C   0  0
    3.5393    1.5894    0.1184 C   0  0
    2.1490    1.5541    0.1709 C   0  0
    5.7783    0.4518    0.1374 C   0  0
    6.4394    1.3139   -0.7455 C   0  0
    7.8300    1.3643   -0.7871 C   0  0
    8.5863    0.5496    0.0678 C   0  0
    9.9932    0.5231    0.0964 N   0  0
   10.8655    1.4586   -0.3317 C   0  0
   10.5526    2.5584   -0.7894 O   0  0
   12.1288    1.0177   -0.1613 N   0  0
   13.3469    1.6438   -0.4898 C   0  0
   14.4950    1.0746    0.0688 C   0  0
   15.7495    1.6153   -0.2003 C   0  0
   15.8584    2.7241   -1.0352 C   0  0
   14.7241    3.2943   -1.6071 C   0  0
   13.4677    2.7562   -1.3399 C   0  0
    7.9340   -0.3263    0.9360 C   0  0
    6.5431   -0.3702    0.9736 C   0  0
   -0.0893   -2.4114    1.6974 H   0  0
   -1.6577   -3.6152    0.5075 H   0  0
   -2.6113   -3.2600    1.9331 H   0  0
   -3.5286   -2.6243   -0.5488 H   0  0
   -3.8261   -1.5368    0.7975 H   0  0
   -2.1081   -1.0577   -1.5317 H   0  0
   -2.6490    0.0725   -0.3093 H   0  0
   -0.1745   -1.6306   -0.4919 H   0  0
    1.7494   -1.8133    0.4664 H   0  0
    4.1598   -1.7362    0.3630 H   0  0
    4.0336    2.5464    0.0334 H   0  0
    1.6091    2.4892    0.1199 H   0  0
    5.8756    1.9481   -1.4141 H   0  0
    8.2935    2.0302   -1.4982 H   0  0
   10.3882   -0.2848    0.5545 H   0  0
   12.2321    0.1270    0.3021 H   0  0
   14.4224    0.2134    0.7178 H   0  0
   16.6344    1.1755    0.2358 H   0  0
   16.8316    3.1426   -1.2449 H   0  0
   14.8184    4.1494   -2.2600 H   0  0
   12.6140    3.2129   -1.8145 H   0  0
    8.4989   -0.9706    1.5950 H   0  0
    6.0606   -1.0443    1.6664 H   0  0
  1  2  1  0
  2  3  2  0
  2  4  1  0
  4  5  1  0
  4  8  1  0
  4 33  1  0
  5  6  1  0
  5 34  1  0
  5 35  1  0
  6  7  1  0
  6 36  1  0
  6 37  1  0
  7  8  1  0
  7 38  1  0
  7 39  1  0
  8  9  1  0
  8 40  1  0
  9 10  2  0
  9 11  1  0
 11 12  2  0
 11 16  1  0
 12 13  1  0
 12 41  1  0
 13 14  2  0
 13 42  1  0
 14 15  1  0
 14 17  1  0
 15 16  2  0
 15 43  1  0
 16 44  1  0
 17 18  2  0
 17 32  1  0
 18 19  1  0
 18 45  1  0
 19 20  2  0
 19 46  1  0
 20 21  1  0
 20 31  1  0
 21 22  1  0
 21 47  1  0
 22 23  2  0
 22 24  1  0
 24 25  1  0
 24 48  1  0
 25 26  2  0
 25 30  1  0
 26 27  1  0
 26 49  1  0
 27 28  2  0
 27 50  1  0
 28 29  1  0
 28 51  1  0
 29 30  2  0
 29 52  1  0
 30 53  1  0
 31 32  2  0
 31 54  1  0
 32 55  1  0
M  CHG  1   1  -1
M  END
> <Mol2_MolInfo_Name>
11201

> <Mol2_MolInfo_Type>
SMALL

> <Mol2_MolInfo_Charge>
USER_CHARGES

> <Mol2_Substructures>
     1 UNK         1 GROUP             0       ****    0 ROOT    

> <Name>
11201

$$$$
11206
  SciTegic06232017503D

 24 23  0  0  0  0            999 V2000
   -2.5637    1.5287   -0.4387 C   0  0
   -1.4558    2.4167   -0.0450 N   0  0
   -1.8399    3.8175    0.2055 C   0  0
   -0.1484    1.9791    0.1087 C   0  0
    1.1476    2.9287    0.5962 S   0  0
    0.0589    0.2423   -0.2954 S   0  0
    2.0012   -0.3774    0.0625 S   0  0
    2.2085   -0.8949    1.7690 C   0  0
    0.9129   -0.9456    2.8357 S   0  0
    3.5157   -1.2472    2.0711 N   0  0
    4.6233   -1.1455    1.1047 C   0  0
    3.8999   -1.7292    3.4101 C   0  0
   -2.6480    0.6820    0.2439 H   0  0
   -2.4113    1.1467   -1.4489 H   0  0
   -3.5283    2.0369   -0.4278 H   0  0
   -1.1843    4.5110   -0.3230 H   0  0
   -1.7886    4.0410    1.2719 H   0  0
   -2.8548    4.0356   -0.1283 H   0  0
    4.7125   -0.1294    0.7177 H   0  0
    4.4667   -1.8244    0.2654 H   0  0
    5.5871   -1.3978    1.5479 H   0  0
    3.2455   -2.5347    3.7460 H   0  0
    3.8456   -0.9174    4.1365 H   0  0
    4.9157   -2.1248    3.4337 H   0  0
  1  2  1  0
  1 13  1  0
  1 14  1  0
  1 15  1  0
  2  3  1  0
  2  4  1  0
  3 16  1  0
  3 17  1  0
  3 18  1  0
  4  5  2  0
  4  6  1  0
  6  7  1  0
  7  8  1  0
  8  9  2  0
  8 10  1  0
 10 11  1  0
 10 12  1  0
 11 19  1  0
 11 20  1  0
 11 21  1  0
 12 22  1  0
 12 23  1  0
 12 24  1  0
M  END
> <Mol2_MolInfo_Name>
11206

> <Mol2_MolInfo_Type>
SMALL

> <Mol2_MolInfo_Charge>
USER_CHARGES

> <Mol2_Substructures>
     1 UNK         1 GROUP             0       ****    0 ROOT    

> <Name>
11206

$$$$
11215
  SciTegic06232017503D

 33 35  0  0  0  0            999 V2000
   -0.7309    1.1593    0.0231 C   0  0
    0.1643    0.0250    0.1853 N   0  0
    1.5342    0.0615    0.1169 C   0  0
    2.4170    1.5639    0.1797 S   0  0
    3.8426    0.6381    0.0559 N   0  0
    3.5538   -0.7316   -0.0172 C   0  0
    2.2668   -1.0153    0.0242 N   0  0
    4.5848   -1.8122   -0.1302 C   0  0
    4.4788   -2.9588    0.6655 C   0  0
    5.4312   -3.9698    0.5683 C   0  0
    6.4879   -3.8383   -0.3293 C   0  0
    6.5990   -2.7060   -1.1325 C   0  0
    5.6462   -1.6955   -1.0356 C   0  0
    5.1098    1.2442    0.1281 C   0  0
    5.4751    2.1992   -0.8251 C   0  0
    6.7320    2.7945   -0.7551 C   0  0
    7.6113    2.4355    0.2652 C   0  0
    7.2464    1.4881    1.2201 C   0  0
    5.9910    0.8901    1.1545 C   0  0
   -1.7455    0.8749    0.3025 H   0  0
   -0.7491    1.4810   -1.0186 H   0  0
   -0.4249    2.0021    0.6436 H   0  0
    3.6624   -3.0666    1.3653 H   0  0
    5.3512   -4.8521    1.1863 H   0  0
    7.2264   -4.6228   -0.4052 H   0  0
    7.4193   -2.6132   -1.8289 H   0  0
    5.7365   -0.8240   -1.6680 H   0  0
    4.7958    2.4767   -1.6185 H   0  0
    7.0250    3.5310   -1.4890 H   0  0
    8.5862    2.8977    0.3174 H   0  0
    7.9347    1.2187    2.0078 H   0  0
    5.7095    0.1559    1.8961 H   0  0
   -0.2920   -0.8445   -0.0528 H   0  0
  1  2  1  0
  1 20  1  0
  1 21  1  0
  1 22  1  0
  2  3  1  0
  2 33  1  0
  3  4  1  0
  3  7  2  0
  4  5  1  0
  5  6  2  0
  5 14  1  0
  6  7  1  0
  6  8  1  0
  8  9  2  0
  8 13  1  0
  9 10  1  0
  9 23  1  0
 10 11  2  0
 10 24  1  0
 11 12  1  0
 11 25  1  0
 12 13  2  0
 12 26  1  0
 13 27  1  0
 14 15  2  0
 14 19  1  0
 15 16  1  0
 15 28  1  0
 16 17  2  0
 16 29  1  0
 17 18  1  0
 17 30  1  0
 18 19  2  0
 18 31  1  0
 19 32  1  0
M  END
> <Mol2_MolInfo_Name>
11215

> <Mol2_MolInfo_Type>
SMALL

> <Mol2_MolInfo_Charge>
USER_CHARGES

> <Mol2_Substructures>
     1 UNK         1 GROUP             0       ****    0 ROOT    

> <Name>
11215

$$$$
11220
  SciTegic06232017503D

 53 56  0  0  0  0            999 V2000
   -2.3765    0.3201    2.8645 C   0  0
   -2.0658    0.2356    1.3607 C   0  0  2  0  0  0
   -1.0925    1.2458    1.0642 O   0  0
   -0.6287    1.2585   -0.2646 C   0  0  1  0  0  0
    0.0439    0.0621   -0.5922 O   0  0
    1.3855    0.0438   -0.3552 C   0  0
    1.9156   -0.6844    0.6541 C   0  0
    3.2457   -0.7760    0.9099 O   0  0
    4.1246   -0.0429    0.1395 C   0  0
    5.4653   -0.1330    0.5056 C   0  0
    6.4259    0.5622   -0.2196 C   0  0
    7.7451    0.4798    0.1353 O   0  0
    6.0435    1.3413   -1.3075 C   0  0
    4.7007    1.4359   -1.6791 C   0  0
    4.4112    2.2277   -2.7620 O   0  0
    3.7060    0.7425   -0.9541 C   0  0
    2.2356    0.8011   -1.2950 C   0  0
    1.7977    1.4264   -2.2611 O   0  0
    1.1634   -1.5767    1.5546 C   0  0
    0.2999   -2.5508    1.0417 C   0  0
   -0.4271   -3.3805    1.8966 C   0  0
   -1.2747   -4.3150    1.3564 O   0  0
   -0.2895   -3.2486    3.2845 C   0  0
   -1.0061   -4.0632    4.1291 O   0  0
    0.5814   -2.2818    3.8043 C   0  0
    0.7400   -2.1260    5.1585 O   0  0
    1.3018   -1.4556    2.9406 C   0  0
   -1.7958    1.4627   -1.2467 C   0  0  1  0  0  0
   -1.3444    1.5095   -2.5882 O   0  0
   -2.9046    0.4113   -1.0211 C   0  0  2  0  0  0
   -4.0235    0.6508   -1.8599 O   0  0
   -3.3186    0.3752    0.4648 C   0  0  1  0  0  0
   -4.2471   -0.6682    0.7087 O   0  0
   -3.0778   -0.4556    3.1729 H   0  0
   -2.8090    1.2861    3.1271 H   0  0
   -1.4702    0.1903    3.4567 H   0  0
   -1.6215   -0.7404    1.1761 H   0  0
    0.0396    2.1233   -0.2652 H   0  0
    5.7532   -0.7428    1.3493 H   0  0
    7.8919   -0.0831    0.8985 H   0  0
    6.7970    1.8779   -1.8665 H   0  0
    5.1919    2.6313   -3.1473 H   0  0
    0.1850   -2.6557   -0.0279 H   0  0
   -1.2870   -4.3032    0.3968 H   0  0
   -1.5683   -4.6836    3.6585 H   0  0
    1.3583   -1.4293    5.3893 H   0  0
    1.9667   -0.7078    3.3492 H   0  0
   -2.2012    2.4549   -1.0399 H   0  0
   -1.1224    0.6182   -2.8674 H   0  0
   -2.5270   -0.5752   -1.2978 H   0  0
   -3.7039    0.9608   -2.7109 H   0  0
   -3.8287    1.3075    0.7146 H   0  0
   -5.0413   -0.4895    0.1993 H   0  0
  1  2  1  0
  1 34  1  0
  1 35  1  0
  1 36  1  0
  2  3  1  0
  2 32  1  0
  2 37  1  0
  3  4  1  0
  4  5  1  0
  4 28  1  0
  4 38  1  0
  5  6  1  0
  6  7  2  0
  6 17  1  0
  7  8  1  0
  7 19  1  0
  8  9  1  0
  9 10  2  0
  9 16  1  0
 10 11  1  0
 10 39  1  0
 11 12  1  0
 11 13  2  0
 12 40  1  0
 13 14  1  0
 13 41  1  0
 14 15  1  0
 14 16  2  0
 15 42  1  0
 16 17  1  0
 17 18  2  0
 19 20  2  0
 19 27  1  0
 20 21  1  0
 20 43  1  0
 21 22  1  0
 21 23  2  0
 22 44  1  0
 23 24  1  0
 23 25  1  0
 24 45  1  0
 25 26  1  0
 25 27  2  0
 26 46  1  0
 27 47  1  0
 28 29  1  0
 28 30  1  0
 28 48  1  0
 29 49  1  0
 30 31  1  0
 30 32  1  0
 30 50  1  0
 31 51  1  0
 32 33  1  0
 32 52  1  0
 33 53  1  0
M  END
> <Mol2_MolInfo_Name>
11220

> <Mol2_MolInfo_Type>
SMALL

> <Mol2_MolInfo_Charge>
USER_CHARGES

> <Mol2_Substructures>
     1 UNK         1 GROUP             0       ****    0 ROOT    

> <Name>
11220

$$$$
11272
  SciTegic06232017503D

 27 29  0  0  0  0            999 V2000
    0.9976    3.0985   -0.1012 O   0  0
   -0.1737    2.7247   -0.0508 C   0  0
   -0.6329    1.3279   -0.0146 C   0  0
    0.1131    0.1940   -0.0227 C   0  0
    1.5805    0.0449    0.0097 C   0  0
    2.3808    0.6722    0.9743 C   0  0
    3.7639    0.4809    0.9624 C   0  0
    4.3115   -0.3473   -0.0179 C   0  0
    3.5588   -0.9782   -0.9546 N   0  0
    2.2158   -0.7794   -0.9255 C   0  0
   -2.0981    1.3335    0.0046 C   0  0
   -2.8112    0.3294    0.0236 O   0  0
   -2.5078    2.7435   -0.0006 C   0  0
   -3.7874    3.3041    0.0160 C   0  0
   -3.9263    4.6942    0.0001 C   0  0
   -2.7941    5.5129   -0.0328 C   0  0
   -1.5176    4.9454   -0.0491 C   0  0
   -1.3860    3.5542   -0.0318 C   0  0
   -0.4114   -0.7522   -0.0250 H   0  0
    1.9364    1.3027    1.7307 H   0  0
    4.3943    0.9614    1.6962 H   0  0
    5.3768   -0.5190   -0.0612 H   0  0
    1.6460   -1.2972   -1.6837 H   0  0
   -4.6706    2.6820    0.0390 H   0  0
   -4.9114    5.1370    0.0121 H   0  0
   -2.9061    6.5871   -0.0478 H   0  0
   -0.6501    5.5889   -0.0769 H   0  0
  1  2  2  0
  2  3  1  0
  2 18  1  0
  3  4  2  0
  3 11  1  0
  4  5  1  0
  4 19  1  0
  5  6  2  0
  5 10  1  0
  6  7  1  0
  6 20  1  0
  7  8  2  0
  7 21  1  0
  8  9  1  0
  8 22  1  0
  9 10  2  0
 10 23  1  0
 11 12  2  0
 11 13  1  0
 13 14  2  0
 13 18  1  0
 14 15  1  0
 14 24  1  0
 15 16  2  0
 15 25  1  0
 16 17  1  0
 16 26  1  0
 17 18  2  0
 17 27  1  0
M  END
> <Mol2_MolInfo_Name>
11272

> <Mol2_MolInfo_Type>
SMALL

> <Mol2_MolInfo_Charge>
USER_CHARGES

> <Mol2_Substructures>
     1 UNK         1 GROUP             0       ****    0 ROOT    

> <Name>
11272

$$$$
11274
  SciTegic06232017503D

 18 19  0  0  0  0            999 V2000
   -3.7048    1.0489    0.1674 N   0  0
   -2.4659    0.4811    0.1185 C   0  0
   -2.2212   -0.8011    0.2026 N   0  0
   -0.8618   -1.0840    0.1306 N   0  0
   -0.1237   -0.0088   -0.0110 C   0  0
    1.6264   -0.0114   -0.1244 S   0  0
    1.7985    0.0046   -1.8701 C   0  0
    1.8988   -1.0728   -2.6078 N   0  0
    2.0208   -0.7867   -3.8888 C   0  0
    2.0243    0.5673   -4.2276 C   0  0
    1.8537    1.4944   -2.7588 S   0  0
    2.1435    1.1636   -5.5196 N   0  3
    2.2660    0.4102   -6.4801 O   0  0
    2.1176    2.3878   -5.5947 O   0  5
   -1.0473    1.4654   -0.0631 S   0  0
   -4.5375    0.4868    0.2731 H   0  0
   -3.8345    2.0490    0.1162 H   0  0
    2.1111   -1.5994   -4.5947 H   0  0
  1  2  1  0
  1 16  1  0
  1 17  1  0
  2  3  2  0
  2 15  1  0
  3  4  1  0
  4  5  2  0
  5  6  1  0
  5 15  1  0
  6  7  1  0
  7  8  2  0
  7 11  1  0
  8  9  1  0
  9 10  2  0
  9 18  1  0
 10 11  1  0
 10 12  1  0
 12 13  2  0
 12 14  1  0
M  CHG  2  12   1  14  -1
M  END
> <Mol2_MolInfo_Name>
11274

> <Mol2_MolInfo_Type>
SMALL

> <Mol2_MolInfo_Charge>
USER_CHARGES

> <Mol2_Substructures>
     1 UNK         1 GROUP             0       ****    0 ROOT    

> <Name>
11274

$$$$
11287
  SciTegic06232017503D

 34 38  0  0  0  0            999 V2000
   -0.0868    1.4319    0.0117 O   0  0
   -1.1484    2.0533    0.0122 C   0  0
   -2.4559    1.4220    0.2478 C   0  0
   -3.6380    2.0862    0.2537 C   0  0
   -3.7809    3.5324    0.0255 C   0  0
   -4.8640    4.1155    0.0349 O   0  0
   -2.4749    4.1803   -0.2121 C   0  0
   -1.2762    3.5065   -0.2189 C   0  0
   -0.0232    4.3856   -0.4914 C   0  0  1  0  0  0
   -0.3743    5.0856   -1.8253 C   0  0
    0.4129    5.0828   -2.9779 C   0  0
   -0.0193    5.7599   -4.1188 C   0  0
   -1.2369    6.4427   -4.1125 C   0  0
   -2.0309    6.4543   -2.9650 C   0  0
   -1.6088    5.7794   -1.8183 C   0  0
   -2.3768    5.7095   -0.4771 C   0  0  2  0  0  0
   -1.3669    6.1828    0.5955 C   0  0
   -1.5805    7.2050    1.5218 C   0  0
   -0.5803    7.5369    2.4366 C   0  0
    0.6360    6.8518    2.4288 C   0  0
    0.8612    5.8297    1.5059 C   0  0
   -0.1328    5.4882    0.5876 C   0  0
   -2.4872    0.3573    0.4294 H   0  0
   -4.5295    1.5043    0.4395 H   0  0
    0.9313    3.8567   -0.4989 H   0  0
    1.3567    4.5576   -2.9886 H   0  0
    0.5908    5.7559   -5.0100 H   0  0
   -1.5653    6.9648   -4.9992 H   0  0
   -2.9711    6.9861   -2.9664 H   0  0
   -3.3245    6.2507   -0.4725 H   0  0
   -2.5186    7.7401    1.5325 H   0  0
   -0.7472    8.3274    3.1532 H   0  0
    1.4062    7.1140    3.1391 H   0  0
    1.8051    5.3042    1.5038 H   0  0
  1  2  2  0
  2  3  1  0
  2  8  1  0
  3  4  2  0
  3 23  1  0
  4  5  1  0
  4 24  1  0
  5  6  2  0
  5  7  1  0
  7  8  2  0
  7 16  1  0
  8  9  1  0
  9 10  1  0
  9 22  1  0
  9 25  1  0
 10 11  2  0
 10 15  1  0
 11 12  1  0
 11 26  1  0
 12 13  2  0
 12 27  1  0
 13 14  1  0
 13 28  1  0
 14 15  2  0
 14 29  1  0
 15 16  1  0
 16 17  1  0
 16 30  1  0
 17 18  2  0
 17 22  1  0
 18 19  1  0
 18 31  1  0
 19 20  2  0
 19 32  1  0
 20 21  1  0
 20 33  1  0
 21 22  2  0
 21 34  1  0
M  END
> <Mol2_MolInfo_Name>
11287

> <Mol2_MolInfo_Type>
SMALL

> <Mol2_MolInfo_Charge>
USER_CHARGES

> <Mol2_Substructures>
     1 UNK         1 GROUP             0       ****    0 ROOT    

> <Name>
11287

$$$$
11292
  SciTegic06232017503D

 15 14  0  0  0  0            999 V2000
   -0.5423    1.3668    0.0488 O   0  0
   -0.0281    0.0491    0.0273 C   0  0
    1.5213    0.0244   -0.0150 C   0  0  1  0  0  0
    2.1817    0.9180    1.6591 Br  0  0
    2.0396   -1.4348   -0.0090 C   0  0
    3.4527   -1.5020   -0.0043 O   0  0
    2.0528    0.7737   -1.2200 N   0  3
    1.6255    0.4467   -2.3237 O   0  0
    2.8912    1.6550   -1.0590 O   0  5
   -1.5012    1.3223    0.0671 H   0  0
   -0.3946   -0.4741    0.9114 H   0  0
   -0.4484   -0.4684   -0.8362 H   0  0
    1.6707   -1.9683    0.8679 H   0  0
    1.6730   -1.9782   -0.8810 H   0  0
    3.7172   -2.4250   -0.0024 H   0  0
  1  2  1  0
  1 10  1  0
  2  3  1  0
  2 11  1  0
  2 12  1  0
  3  4  1  0
  3  5  1  0
  3  7  1  0
  5  6  1  0
  5 13  1  0
  5 14  1  0
  6 15  1  0
  7  8  2  0
  7  9  1  0
M  CHG  2   7   1   9  -1
M  END
> <Mol2_MolInfo_Name>
11292

> <Mol2_MolInfo_Type>
SMALL

> <Mol2_MolInfo_Charge>
USER_CHARGES

> <Mol2_Substructures>
     1 UNK         1 GROUP             0       ****    0 ROOT    

> <Name>
11292

$$$$
11326
  SciTegic06232017503D

 60 64  0  0  0  0            999 V2000
   -0.5011    6.6541   -2.0249 C   0  0
    0.5399    6.1973   -1.0186 C   0  0
    1.5164    7.1011   -0.5781 C   0  0
    2.5160    6.7736    0.3557 C   0  0
    2.5591    5.4750    0.8834 C   0  0
    1.6048    4.5386    0.4689 C   0  0
    1.4607    3.2289    0.8446 N   0  0
    0.4181    2.7904    0.1762 C   0  0
   -0.1280    3.7683   -0.6278 N   0  0
    0.6161    4.9144   -0.4681 C   0  0
   -0.0999    1.4174    0.2766 C   0  0
    0.6987    0.3249    0.0403 C   0  0
    2.0169    0.4635   -0.3468 N   0  0
    2.7564   -0.3870   -1.2727 C   0  0
    2.4658   -0.0819   -2.7590 C   0  0  1  0  0  0
    2.8135    1.2624   -3.0499 O   0  0
    3.1555   -1.0891   -3.6775 C   0  0
    4.4752   -0.8974   -4.1094 C   0  0
    5.0908   -1.8367   -4.9373 C   0  0
    4.3963   -2.9787   -5.3349 C   0  0
    3.0855   -3.1830   -4.9032 C   0  0
    2.2270   -4.5992   -5.3894 Cl  0  0
    2.4691   -2.2425   -4.0762 C   0  0
    0.0810   -1.0011    0.0902 C   0  0
   -1.2388   -1.0742    0.3313 C   0  0
   -2.0226    0.0140    0.5745 N   0  0
   -1.5303    1.2824    0.6282 C   0  0
   -2.2608    2.2050    0.9887 O   0  0
    3.4638    7.7082    0.7726 N   0  0
    3.7122    8.9487    0.0151 C   0  0
    5.0322    9.6437    0.4105 C   0  0
    5.0468    9.8934    1.8082 O   0  0
    4.9411    8.6929    2.5596 C   0  0
    3.6230    7.9662    2.2164 C   0  0
   -0.4513    6.0371   -2.9226 H   0  0
   -0.3623    7.6944   -2.3224 H   0  0
   -1.5002    6.5558   -1.5993 H   0  0
    1.4791    8.1035   -0.9787 H   0  0
    3.3228    5.1881    1.5915 H   0  0
   -0.9372    3.6165   -1.2123 H   0  0
    2.4304    1.3811   -0.2596 H   0  0
    3.8209   -0.2564   -1.0729 H   0  0
    2.5473   -1.4348   -1.0570 H   0  0
    1.3887   -0.1494   -2.9246 H   0  0
    2.4781    1.4816   -3.9224 H   0  0
    5.0286   -0.0212   -3.8035 H   0  0
    6.1069   -1.6804   -5.2683 H   0  0
    4.8768   -3.7042   -5.9751 H   0  0
    1.4549   -2.4107   -3.7431 H   0  0
    0.6569   -1.9025   -0.0544 H   0  0
   -1.7924   -1.9988    0.4093 H   0  0
   -2.9947   -0.0939    0.8241 H   0  0
    3.7666    8.7059   -1.0469 H   0  0
    2.8702    9.6313    0.1399 H   0  0
    5.8959    9.0432    0.1176 H   0  0
    5.1235   10.5951   -0.1138 H   0  0
    5.8032    8.0484    2.3764 H   0  0
    4.9615    8.9442    3.6203 H   0  0
    2.7664    8.5395    2.5742 H   0  0
    3.6119    7.0278    2.7704 H   0  0
  1  2  1  0
  1 35  1  0
  1 36  1  0
  1 37  1  0
  2  3  2  0
  2 10  1  0
  3  4  1  0
  3 38  1  0
  4  5  2  0
  4 29  1  0
  5  6  1  0
  5 39  1  0
  6  7  1  0
  6 10  2  0
  7  8  2  0
  8  9  1  0
  8 11  1  0
  9 10  1  0
  9 40  1  0
 11 12  2  0
 11 27  1  0
 12 13  1  0
 12 24  1  0
 13 14  1  0
 13 41  1  0
 14 15  1  0
 14 42  1  0
 14 43  1  0
 15 16  1  0
 15 17  1  0
 15 44  1  0
 16 45  1  0
 17 18  2  0
 17 23  1  0
 18 19  1  0
 18 46  1  0
 19 20  2  0
 19 47  1  0
 20 21  1  0
 20 48  1  0
 21 22  1  0
 21 23  2  0
 23 49  1  0
 24 25  2  0
 24 50  1  0
 25 26  1  0
 25 51  1  0
 26 27  1  0
 26 52  1  0
 27 28  2  0
 29 30  1  0
 29 34  1  0
 30 31  1  0
 30 53  1  0
 30 54  1  0
 31 32  1  0
 31 55  1  0
 31 56  1  0
 32 33  1  0
 33 34  1  0
 33 57  1  0
 33 58  1  0
 34 59  1  0
 34 60  1  0
M  END
> <Mol2_MolInfo_Name>
11326

> <Mol2_MolInfo_Type>
SMALL

> <Mol2_MolInfo_Charge>
USER_CHARGES

> <Mol2_Substructures>
     1 UNK         1 GROUP             0       ****    0 ROOT    

> <Name>
11326

$$$$
11342
  SciTegic06232017503D

 24 24  0  0  0  0            999 V2000
   -4.1875    2.4532    0.0000 C   0  0
   -2.7747    2.3035    0.0000 O   0  0
   -2.2095    1.0767    0.0000 C   0  0
   -2.8396    0.0149    0.0000 O   0  0
   -0.7523    1.1554    0.0000 C   0  0
    0.0386    0.0594    0.0000 C   0  0
    1.5251    0.0314    0.0000 C   0  0
    2.2781    1.2181    0.0000 C   0  0
    3.6734    1.1853    0.0000 C   0  0
    4.3891    2.3534    0.0000 O   0  0
    4.3403   -0.0369    0.0000 C   0  0
    3.6126   -1.2239    0.0000 C   0  0
    2.2164   -1.1964    0.0000 C   0  0
    1.5523   -2.3980    0.0000 O   0  0
   -4.4464    3.5118    0.0000 H   0  0
   -4.6303    1.9952    0.8858 H   0  0
   -4.6303    1.9952   -0.8857 H   0  0
   -0.3334    2.1503    0.0000 H   0  0
   -0.4422   -0.9094    0.0000 H   0  0
    1.7925    2.1818    0.0000 H   0  0
    3.8327    3.1355    0.0000 H   0  0
    5.4202   -0.0694    0.0000 H   0  0
    4.1391   -2.1674    0.0000 H   0  0
    2.1460   -3.1523    0.0000 H   0  0
  1  2  1  0
  1 15  1  0
  1 16  1  0
  1 17  1  0
  2  3  1  0
  3  4  2  0
  3  5  1  0
  5  6  2  0
  5 18  1  0
  6  7  1  0
  6 19  1  0
  7  8  2  0
  7 13  1  0
  8  9  1  0
  8 20  1  0
  9 10  1  0
  9 11  2  0
 10 21  1  0
 11 12  1  0
 11 22  1  0
 12 13  2  0
 12 23  1  0
 13 14  1  0
 14 24  1  0
M  END
> <Mol2_MolInfo_Name>
11342

> <Mol2_MolInfo_Type>
SMALL

> <Mol2_MolInfo_Charge>
USER_CHARGES

> <Mol2_Substructures>
     1 UNK         1 GROUP             0       ****    0 ROOT    

> <Name>
11342

$$$$
11361
  SciTegic06232017503D

 94106  0  0  0  0            999 V2000
   -3.2989    3.4897   -5.3734 O   0  0
   -2.4291    2.6547   -4.7227 C   0  0
   -1.1534    2.3921   -5.2409 C   0  0
   -0.2989    1.4793   -4.5995 C   0  0
   -0.6818    0.8458   -3.4075 C   0  0
    0.1044   -0.2855   -2.7389 C   0  0
   -0.4843   -0.7191   -1.3449 C   0  0  1  0  0  0
    0.0445    0.2120   -0.2046 N   0  3  1  0  0  0
    1.5772    0.1068   -0.0070 C   0  0
    1.9705    0.5401    1.4160 C   0  0  2  0  0  0
    2.3597    1.9693    1.7066 C   0  0
    3.4117    0.8766    1.7070 C   0  0
   -0.4325    1.6814   -0.3079 C   0  0
   -1.9693    1.6852   -0.4271 C   0  0
   -2.5071    0.7644   -1.5675 C   0  0  1  0  0  0
   -4.0052    1.0732   -1.8638 C   0  0  1  0  0  0
   -4.0293    2.0559   -2.9204 O   0  0
   -2.8023    2.0213   -3.5395 C   0  0
   -1.9212    1.2044   -2.8770 C   0  0
   -4.7230   -0.1970   -2.3085 C   0  0
   -6.0660   -0.2845   -2.5556 N   0  0
   -6.3802   -1.5677   -2.9128 C   0  0
   -7.7796   -2.0450   -3.2869 C   0  0  2  0  0  0
   -8.6494   -1.9949   -2.1359 O   0  0
   -8.7453   -3.2738   -1.6406 C   0  0
   -9.3201   -3.6781   -0.4381 C   0  0
   -9.9550   -2.7743    0.3723 O   0  0
   -9.2072   -5.0256   -0.0697 C   0  0
   -8.4954   -5.9273   -0.8789 C   0  0
   -7.9211   -5.5130   -2.0903 C   0  0
   -6.9883   -6.3763   -2.9447 C   0  0
   -6.5979   -5.7087   -4.3160 C   0  0  1  0  0  0
   -7.6979   -5.9738   -5.3961 N   0  3  1  0  0  0
   -7.8440   -7.4753   -5.7471 C   0  0
   -8.4562   -7.6457   -7.1486 C   0  0  2  0  0  0
   -9.9477   -7.7963   -7.3254 C   0  0
   -9.0297   -8.9849   -7.5390 C   0  0
   -9.0626   -5.3078   -5.0938 C   0  0
   -8.8220   -3.8078   -4.8332 C   0  0
   -7.7302   -3.5313   -3.7518 C   0  0  2  0  0  0
   -8.1334   -4.1856   -2.4631 C   0  0
   -6.3577   -4.1545   -4.1963 C   0  0  2  0  0  0
   -5.9833   -3.6221   -5.4625 O   0  0
   -5.1935   -3.8106   -3.2125 C   0  0
   -5.2093   -2.3277   -2.8669 C   0  0
   -4.1583   -1.4530   -2.5394 C   0  0
   -2.6689   -1.7152   -2.3603 C   0  0
   -2.0616   -0.7220   -1.3183 C   0  0  1  0  0  0
   -2.5245   -1.1482   -0.0412 O   0  0
   -2.9357    3.8546   -6.1835 H   0  0
   -0.8369    2.8594   -6.1621 H   0  0
    0.6530    1.2398   -5.0506 H   0  0
    0.0913   -1.1484   -3.4054 H   0  0
    1.1535   -0.0031   -2.6728 H   0  0
   -0.1243   -1.7138   -1.0757 H   0  0
    1.8239   -0.9449   -0.1581 H   0  0
    2.0514    0.7059   -0.7854 H   0  0
    1.4461   -0.0289    2.1852 H   0  0
    2.3524    2.6944    0.8921 H   0  0
    2.0473    2.4073    2.6550 H   0  0
    3.8372    0.5489    2.6561 H   0  0
    4.1364    0.8362    0.8930 H   0  0
   -0.1199    2.1871    0.6046 H   0  0
    0.0765    2.1399   -1.1559 H   0  0
   -2.3956    1.3914    0.5330 H   0  0
   -2.2901    2.7152   -0.5926 H   0  0
   -4.5321    1.4450   -0.9833 H   0  0
   -6.7229    0.4800   -2.4871 H   0  0
   -8.1435   -1.3793   -4.0712 H   0  0
   -9.9593   -1.8853    0.0099 H   0  0
   -9.6337   -5.3674    0.8623 H   0  0
   -8.3635   -6.9462   -0.5450 H   0  0
   -6.0769   -6.5589   -2.3747 H   0  0
   -7.4327   -7.3608   -3.0781 H   0  0
   -5.6979   -6.1754   -4.7207 H   0  0
   -6.8326   -7.8835   -5.7301 H   0  0
   -8.4365   -7.9416   -4.9589 H   0  0
   -7.8852   -7.1253   -7.9191 H   0  0
  -10.5884   -7.7759   -6.4430 H   0  0
  -10.4157   -7.3239   -8.1894 H   0  0
   -8.8554   -9.3458   -8.5529 H   0  0
   -9.0264   -9.7927   -6.8062 H   0  0
   -9.6910   -5.4463   -5.9726 H   0  0
   -9.5134   -5.8353   -4.2529 H   0  0
   -8.5548   -3.3271   -5.7754 H   0  0
   -9.7720   -3.3631   -4.5311 H   0  0
   -5.8378   -2.6780   -5.3645 H   0  0
   -5.2741   -4.3717   -2.2824 H   0  0
   -4.2331   -4.1037   -3.6397 H   0  0
   -2.4857   -2.7472   -2.0564 H   0  0
   -2.1923   -1.6164   -3.3346 H   0  0
   -3.4847   -1.1463   -0.0502 H   0  0
   -0.3748   -0.1591    0.6367 H   0  0
   -7.3454   -5.5227   -6.2289 H   0  0
  1  2  1  0
  1 50  1  0
  2  3  2  0
  2 18  1  0
  3  4  1  0
  3 51  1  0
  4  5  2  0
  4 52  1  0
  5  6  1  0
  5 19  1  0
  6  7  1  0
  6 53  1  0
  6 54  1  0
  7  8  1  0
  7 48  1  0
  7 55  1  0
  8  9  1  0
  8 13  1  0
  8 93  1  0
  9 10  1  0
  9 56  1  0
  9 57  1  0
 10 11  1  0
 10 12  1  0
 10 58  1  0
 11 12  1  0
 11 59  1  0
 11 60  1  0
 12 61  1  0
 12 62  1  0
 13 14  1  0
 13 63  1  0
 13 64  1  0
 14 15  1  0
 14 65  1  0
 14 66  1  0
 15 16  1  0
 15 19  1  0
 15 48  1  0
 16 17  1  0
 16 20  1  0
 16 67  1  0
 17 18  1  0
 18 19  2  0
 20 21  1  0
 20 46  2  0
 21 22  1  0
 21 68  1  0
 22 23  1  0
 22 45  2  0
 23 24  1  0
 23 40  1  0
 23 69  1  0
 24 25  1  0
 25 26  2  0
 25 41  1  0
 26 27  1  0
 26 28  1  0
 27 70  1  0
 28 29  2  0
 28 71  1  0
 29 30  1  0
 29 72  1  0
 30 31  1  0
 30 41  2  0
 31 32  1  0
 31 73  1  0
 31 74  1  0
 32 33  1  0
 32 42  1  0
 32 75  1  0
 33 34  1  0
 33 38  1  0
 33 94  1  0
 34 35  1  0
 34 76  1  0
 34 77  1  0
 35 36  1  0
 35 37  1  0
 35 78  1  0
 36 37  1  0
 36 79  1  0
 36 80  1  0
 37 81  1  0
 37 82  1  0
 38 39  1  0
 38 83  1  0
 38 84  1  0
 39 40  1  0
 39 85  1  0
 39 86  1  0
 40 41  1  0
 40 42  1  0
 42 43  1  0
 42 44  1  0
 43 87  1  0
 44 45  1  0
 44 88  1  0
 44 89  1  0
 45 46  1  0
 46 47  1  0
 47 48  1  0
 47 90  1  0
 47 91  1  0
 48 49  1  0
 49 92  1  0
M  CHG  2   8   1  33   1
M  END
> <Mol2_MolInfo_Name>
11361

> <Mol2_MolInfo_Type>
SMALL

> <Mol2_MolInfo_Charge>
USER_CHARGES

> <Mol2_Substructures>
     1 UNK         1 GROUP             0       ****    0 ROOT    

> <Name>
11361

$$$$
11361
  SciTegic06232017503D

 94106  0  0  0  0            999 V2000
   -4.8585    2.8087    4.0545 O   0  0
   -4.1540    1.9147    3.2923 C   0  0
   -4.8109    0.9788    2.4820 C   0  0
   -4.0765    0.0235    1.7590 C   0  0
   -2.6740    0.0115    1.7950 C   0  0
   -1.8022   -1.0871    1.1766 C   0  0
   -0.2652   -0.7787    1.2521 C   0  0  1  0  0  0
    0.0802    0.1042    0.0057 N   0  3  2  0  0  0
    1.5827    0.0506   -0.3766 C   0  0
    1.7598    0.2932   -1.8862 C   0  0  2  0  0  0
    3.1348    0.6084   -2.4196 C   0  0
    2.0555    1.6734   -2.4221 C   0  0
   -0.4473    1.5621    0.0782 C   0  0
   -0.1253    2.1766    1.4563 C   0  0
   -0.5846    1.2881    2.6539 C   0  0  1  0  0  0
   -0.5993    2.1106    3.9772 C   0  0  1  0  0  0
   -1.9320    2.6449    4.1245 O   0  0
   -2.7620    1.8950    3.3254 C   0  0
   -2.0573    1.0165    2.5422 C   0  0
   -0.2630    1.2057    5.1579 C   0  0
   -0.0952    1.6390    6.4446 N   0  0
    0.2149    0.5741    7.2456 C   0  0
    0.4555    0.6655    8.7485 C   0  0  2  0  0  0
    1.6639    1.4086    9.0140 O   0  0
    2.6554    0.4938    9.2783 C   0  0
    4.0219    0.7342    9.3974 C   0  0
    4.5152    2.0107    9.3357 O   0  0
    4.8770   -0.3654    9.5523 C   0  0
    4.3625   -1.6731    9.5476 C   0  0
    2.9838   -1.9074    9.4316 C   0  0
    2.3550   -3.2916    9.2462 C   0  0
    0.7805   -3.2724    9.2568 C   0  0  1  0  0  0
    0.2336   -3.3246   10.7213 N   0  3  1  0  0  0
    0.5783   -4.6495   11.4456 C   0  0
   -0.4010   -4.9027   12.6057 C   0  0  2  0  0  0
   -0.0783   -4.4318   14.0033 C   0  0
   -0.0348   -5.9100   13.6665 C   0  0
    0.5819   -2.0809   11.5747 C   0  0
    0.1223   -0.8259   10.8076 C   0  0
    0.6607   -0.7591    9.3440 C   0  0  2  0  0  0
    2.1607   -0.7830    9.3659 C   0  0
    0.1753   -2.0113    8.5277 C   0  0  2  0  0  0
   -1.2469   -2.0714    8.5548 O   0  0
    0.5862   -1.9436    7.0209 C   0  0
    0.2714   -0.5689    6.4449 C   0  0
   -0.0758   -0.1782    5.1389 C   0  0
   -0.1813   -0.9882    3.8524 C   0  0
    0.1567   -0.0933    2.6144 C   0  0  1  0  0  0
    1.5609    0.1220    2.6691 O   0  0
   -4.2914    3.3886    4.5682 H   0  0
   -5.8905    0.9623    2.4433 H   0  0
   -4.6034   -0.7302    1.1922 H   0  0
   -2.0058   -2.0251    1.6941 H   0  0
   -2.1137   -1.2540    0.1441 H   0  0
    0.2742   -1.7164    1.1080 H   0  0
    2.1174    0.7710    0.2425 H   0  0
    1.9247   -0.9543   -0.1278 H   0  0
    1.1606   -0.3893   -2.4908 H   0  0
    3.9640    0.6936   -1.7162 H   0  0
    3.4386    0.1585   -3.3652 H   0  0
    1.6010    1.9681   -3.3683 H   0  0
    2.1425    2.5076   -1.7254 H   0  0
   -0.0008    2.1316   -0.7343 H   0  0
   -1.5164    1.5032   -0.1236 H   0  0
    0.9428    2.3856    1.5201 H   0  0
   -0.6171    3.1497    1.5060 H   0  0
    0.1384    2.9147    3.9718 H   0  0
   -0.1855    2.5961    6.7550 H   0  0
   -0.4096    1.1728    9.1793 H   0  0
    3.8279    2.6714    9.2220 H   0  0
    5.9433   -0.2122    9.6337 H   0  0
    5.0446   -2.5090    9.6026 H   0  0
    2.6921   -3.6928    8.2900 H   0  0
    2.7632   -3.9718    9.9914 H   0  0
    0.3890   -4.1755    8.7851 H   0  0
    0.4764   -5.4325   10.6931 H   0  0
    1.6183   -4.5886   11.7680 H   0  0
   -1.4421   -4.9065   12.2799 H   0  0
    0.8590   -3.9023   14.1780 H   0  0
   -0.8924   -4.0492   14.6192 H   0  0
   -0.8177   -6.5652   14.0497 H   0  0
    0.9310   -6.4128   13.6038 H   0  0
    0.0404   -2.1711   12.5152 H   0  0
    1.6521   -2.1054   11.7809 H   0  0
   -0.9680   -0.7921   10.8140 H   0  0
    0.4510    0.0496   11.3703 H   0  0
   -1.5927   -1.2936    8.1105 H   0  0
    1.6513   -2.1280    6.8862 H   0  0
    0.0867   -2.7306    6.4533 H   0  0
    0.4733   -1.8609    3.8829 H   0  0
   -1.1906   -1.3935    3.7944 H   0  0
    1.7717    0.5391    3.5079 H   0  0
   -0.3915   -0.3341   -0.7728 H   0  0
   -0.7712   -3.3161   10.6148 H   0  0
  1  2  1  0
  1 50  1  0
  2  3  2  0
  2 18  1  0
  3  4  1  0
  3 51  1  0
  4  5  2  0
  4 52  1  0
  5  6  1  0
  5 19  1  0
  6  7  1  0
  6 53  1  0
  6 54  1  0
  7  8  1  0
  7 48  1  0
  7 55  1  0
  8  9  1  0
  8 13  1  0
  8 93  1  0
  9 10  1  0
  9 56  1  0
  9 57  1  0
 10 11  1  0
 10 12  1  0
 10 58  1  0
 11 12  1  0
 11 59  1  0
 11 60  1  0
 12 61  1  0
 12 62  1  0
 13 14  1  0
 13 63  1  0
 13 64  1  0
 14 15  1  0
 14 65  1  0
 14 66  1  0
 15 16  1  0
 15 19  1  0
 15 48  1  0
 16 17  1  0
 16 20  1  0
 16 67  1  0
 17 18  1  0
 18 19  2  0
 20 21  1  0
 20 46  2  0
 21 22  1  0
 21 68  1  0
 22 23  1  0
 22 45  2  0
 23 24  1  0
 23 40  1  0
 23 69  1  0
 24 25  1  0
 25 26  2  0
 25 41  1  0
 26 27  1  0
 26 28  1  0
 27 70  1  0
 28 29  2  0
 28 71  1  0
 29 30  1  0
 29 72  1  0
 30 31  1  0
 30 41  2  0
 31 32  1  0
 31 73  1  0
 31 74  1  0
 32 33  1  0
 32 42  1  0
 32 75  1  0
 33 34  1  0
 33 38  1  0
 33 94  1  0
 34 35  1  0
 34 76  1  0
 34 77  1  0
 35 36  1  0
 35 37  1  0
 35 78  1  0
 36 37  1  0
 36 79  1  0
 36 80  1  0
 37 81  1  0
 37 82  1  0
 38 39  1  0
 38 83  1  0
 38 84  1  0
 39 40  1  0
 39 85  1  0
 39 86  1  0
 40 41  1  0
 40 42  1  0
 42 43  1  0
 42 44  1  0
 43 87  1  0
 44 45  1  0
 44 88  1  0
 44 89  1  0
 45 46  1  0
 46 47  1  0
 47 48  1  0
 47 90  1  0
 47 91  1  0
 48 49  1  0
 49 92  1  0
M  CHG  2   8   1  33   1
M  END
> <Mol2_MolInfo_Name>
11361

> <Mol2_MolInfo_Type>
SMALL

> <Mol2_MolInfo_Charge>
USER_CHARGES

> <Mol2_Substructures>
     1 UNK         1 GROUP             0       ****    0 ROOT    

> <Name>
11361

$$$$
11361
  SciTegic06232017503D

 94106  0  0  0  0            999 V2000
   -4.7863    3.0216    3.7869 O   0  0
   -4.0864    2.1017    3.0518 C   0  0
   -4.7454    1.1913    2.2144 C   0  0
   -4.0194    0.2097    1.5189 C   0  0
   -2.6207    0.1450    1.6100 C   0  0
   -1.7663   -0.9828    1.0203 C   0  0
   -0.2231   -0.7312    1.1573 C   0  0  1  0  0  0
    0.2023    0.1443   -0.0701 N   0  3  2  0  0  0
    1.7157    0.0383   -0.3949 C   0  0
    1.9632    0.3024   -1.8910 C   0  0  2  0  0  0
    3.3698    0.5758   -2.3613 C   0  0
    2.3315    1.6803   -2.3863 C   0  0
   -0.2750    1.6199   -0.0093 C   0  0
    0.0188    2.2153    1.3829 C   0  0
   -0.5207    1.3402    2.5568 C   0  0  1  0  0  0
   -0.5580    2.1581    3.8822 C   0  0  1  0  0  0
   -1.8732    2.7458    3.9742 O   0  0
   -2.6986    2.0288    3.1409 C   0  0
   -1.9970    1.1247    2.3847 C   0  0
   -0.3127    1.2354    5.0716 C   0  0
   -0.1910    1.6571    6.3671 N   0  0
    0.0358    0.5781    7.1766 C   0  0
    0.2087    0.6545    8.6899 C   0  0  2  0  0  0
    1.4339    1.3452    9.0144 O   0  0
    2.3757    0.3876    9.3074 C   0  0
    3.7454    0.5688    9.4819 C   0  0
    4.2933    1.8238    9.4528 O   0  0
    4.5469   -0.5673    9.6581 C   0  0
    3.9793   -1.8521    9.6182 C   0  0
    2.5978   -2.0270    9.4463 C   0  0
    1.9175   -3.3834    9.2296 C   0  0
    0.3505   -3.2960    9.1991 C   0  0  1  0  0  0
   -0.1343   -3.3640   10.6871 N   0  3  2  0  0  0
   -1.6081   -3.8291   10.8236 C   0  0
   -1.8291   -4.5214   12.1805 C   0  0  2  0  0  0
   -3.2399   -4.7531   12.6604 C   0  0
   -2.3506   -3.7509   13.3699 C   0  0
    0.1488   -2.0849   11.5193 C   0  0
   -0.2724   -0.8315   10.7253 C   0  0
    0.3276   -0.7801    9.2857 C   0  0  2  0  0  0
    1.8249   -0.8676    9.3624 C   0  0
   -0.1761   -2.0062    8.4478 C   0  0  2  0  0  0
   -1.5965   -1.9870    8.3908 O   0  0
    0.3062   -1.9534    6.9597 C   0  0
    0.0834   -0.5641    6.3739 C   0  0
   -0.1803   -0.1548    5.0537 C   0  0
   -0.2526   -0.9555    3.7589 C   0  0
    0.1687   -0.0684    2.5401 C   0  0  1  0  0  0
    1.5767    0.0936    2.6531 O   0  0
   -4.2185    3.5778    4.3254 H   0  0
   -5.8225    1.2156    2.1332 H   0  0
   -4.5515   -0.5221    0.9290 H   0  0
   -2.0241   -1.9148    1.5244 H   0  0
   -2.0430   -1.1347   -0.0244 H   0  0
    0.2872   -1.6872    1.0285 H   0  0
    2.2535    0.7253    0.2584 H   0  0
    2.0076   -0.9838   -0.1532 H   0  0
    1.3640   -0.3447   -2.5334 H   0  0
    4.1714    0.6178   -1.6232 H   0  0
    3.6964    0.1332   -3.3028 H   0  0
    1.9271    2.0095   -3.3438 H   0  0
    2.4198    2.4975   -1.6698 H   0  0
    0.2195    2.1773   -0.8021 H   0  0
   -1.3376    1.6006   -0.2493 H   0  0
    1.0912    2.3825    1.4879 H   0  0
   -0.4361    3.2067    1.4194 H   0  0
    0.2115    2.9313    3.9133 H   0  0
   -0.2589    2.6160    6.6778 H   0  0
   -0.6534    1.1959    9.0832 H   0  0
    3.6390    2.5128    9.3156 H   0  0
    5.6146   -0.4597    9.7846 H   0  0
    4.6229   -2.7165    9.6927 H   0  0
    2.2718   -3.8041    8.2879 H   0  0
    2.2519   -4.0804    9.9999 H   0  0
   -0.0285   -4.2022    8.7237 H   0  0
   -2.2540   -2.9645   10.6709 H   0  0
   -1.7766   -4.5451   10.0188 H   0  0
   -1.1282   -5.3398   12.3502 H   0  0
   -4.0683   -4.3895   12.0514 H   0  0
   -3.4710   -5.6988   13.1517 H   0  0
   -1.9547   -3.9947   14.3561 H   0  0
   -2.5696   -2.6883   13.2613 H   0  0
   -0.3813   -2.1630   12.4664 H   0  0
    1.2138   -2.1069   11.7484 H   0  0
   -1.3605   -0.7711   10.6918 H   0  0
    0.0512    0.0422   11.2939 H   0  0
   -1.8716   -1.1904    7.9307 H   0  0
    1.3661   -2.1868    6.8699 H   0  0
   -0.2021   -2.7151    6.3660 H   0  0
    0.3718   -1.8488    3.8151 H   0  0
   -1.2705   -1.3286    3.6540 H   0  0
    1.7694    0.4941    3.5042 H   0  0
   -0.2547   -0.2722   -0.8690 H   0  0
    0.4027   -4.1070   11.1113 H   0  0
  1  2  1  0
  1 50  1  0
  2  3  2  0
  2 18  1  0
  3  4  1  0
  3 51  1  0
  4  5  2  0
  4 52  1  0
  5  6  1  0
  5 19  1  0
  6  7  1  0
  6 53  1  0
  6 54  1  0
  7  8  1  0
  7 48  1  0
  7 55  1  0
  8  9  1  0
  8 13  1  0
  8 93  1  0
  9 10  1  0
  9 56  1  0
  9 57  1  0
 10 11  1  0
 10 12  1  0
 10 58  1  0
 11 12  1  0
 11 59  1  0
 11 60  1  0
 12 61  1  0
 12 62  1  0
 13 14  1  0
 13 63  1  0
 13 64  1  0
 14 15  1  0
 14 65  1  0
 14 66  1  0
 15 16  1  0
 15 19  1  0
 15 48  1  0
 16 17  1  0
 16 20  1  0
 16 67  1  0
 17 18  1  0
 18 19  2  0
 20 21  1  0
 20 46  2  0
 21 22  1  0
 21 68  1  0
 22 23  1  0
 22 45  2  0
 23 24  1  0
 23 40  1  0
 23 69  1  0
 24 25  1  0
 25 26  2  0
 25 41  1  0
 26 27  1  0
 26 28  1  0
 27 70  1  0
 28 29  2  0
 28 71  1  0
 29 30  1  0
 29 72  1  0
 30 31  1  0
 30 41  2  0
 31 32  1  0
 31 73  1  0
 31 74  1  0
 32 33  1  0
 32 42  1  0
 32 75  1  0
 33 34  1  0
 33 38  1  0
 33 94  1  0
 34 35  1  0
 34 76  1  0
 34 77  1  0
 35 36  1  0
 35 37  1  0
 35 78  1  0
 36 37  1  0
 36 79  1  0
 36 80  1  0
 37 81  1  0
 37 82  1  0
 38 39  1  0
 38 83  1  0
 38 84  1  0
 39 40  1  0
 39 85  1  0
 39 86  1  0
 40 41  1  0
 40 42  1  0
 42 43  1  0
 42 44  1  0
 43 87  1  0
 44 45  1  0
 44 88  1  0
 44 89  1  0
 45 46  1  0
 46 47  1  0
 47 48  1  0
 47 90  1  0
 47 91  1  0
 48 49  1  0
 49 92  1  0
M  CHG  2   8   1  33   1
M  END
> <Mol2_MolInfo_Name>
11361

> <Mol2_MolInfo_Type>
SMALL

> <Mol2_MolInfo_Charge>
USER_CHARGES

> <Mol2_Substructures>
     1 UNK         1 GROUP             0       ****    0 ROOT    

> <Name>
11361

$$$$
11361
  SciTegic06232017503D

 93105  0  0  0  0            999 V2000
   -3.4298    3.6939   -5.0810 O   0  0
   -2.5083    2.8963   -4.4555 C   0  0
   -1.2101    2.7547   -4.9641 C   0  0
   -0.2976    1.8789   -4.3518 C   0  0
   -0.6472    1.1626   -3.1970 C   0  0
    0.2126    0.0617   -2.5694 C   0  0
   -0.3619   -0.4829   -1.2089 C   0  0  1  0  0  0
    0.0798    0.4272   -0.0157 N   0  3  1  0  0  0
    1.6125    0.4246    0.2072 C   0  0
    1.9470    0.8044    1.6604 C   0  0  2  0  0  0
    2.2109    2.2409    2.0411 C   0  0
    3.3502    1.2408    1.9992 C   0  0
   -0.5008    1.8618   -0.0577 C   0  0
   -2.0315    1.7596   -0.2021 C   0  0
   -2.4849    0.8584   -1.3931 C   0  0  1  0  0  0
   -3.9976    1.0728   -1.6965 C   0  0  1  0  0  0
   -4.0825    2.0967   -2.7102 O   0  0
   -2.8480    2.1820   -3.3091 C   0  0
   -1.9167    1.4028   -2.6706 C   0  0
   -4.6179   -0.2248   -2.2023 C   0  0
   -5.9514   -0.3999   -2.4524 N   0  0
   -6.1696   -1.6834   -2.8716 C   0  0
   -7.5334   -2.2471   -3.2585 C   0  0  2  0  0  0
   -8.3818   -2.3346   -2.0938 O   0  0
   -8.3434   -3.6383   -1.6573 C   0  0
   -8.8247   -4.1448   -0.4523 C   0  0
   -9.5099   -3.3416    0.4209 O   0  0
   -8.5590   -5.4860   -0.1439 C   0  0
   -7.7914   -6.2781   -1.0145 C   0  0
   -7.3135   -5.7635   -2.2292 C   0  0
   -6.3535   -6.5096   -3.1671 C   0  0
   -6.1106   -5.7505   -4.5197 C   0  0  1  0  0  0
   -7.1762   -6.1296   -5.4867 N   0  0
   -6.7455   -6.0508   -6.8887 C   0  0
   -7.6402   -6.8844   -7.8324 C   0  0  2  0  0  0
   -8.0144   -8.3109   -7.4991 C   0  0
   -7.0332   -8.0225   -8.6173 C   0  0
   -8.4942   -5.5117   -5.2435 C   0  0
   -8.4153   -4.0082   -4.9107 C   0  0
   -7.3684   -3.6954   -3.8026 C   0  0  2  0  0  0
   -7.6801   -4.4513   -2.5412 C   0  0
   -5.9710   -4.1832   -4.2978 C   0  0  2  0  0  0
   -5.6241   -3.5217   -5.5102 O   0  0
   -4.8222   -3.8132   -3.2994 C   0  0
   -4.9446   -2.3556   -2.8678 C   0  0
   -3.9613   -1.4235   -2.4895 C   0  0
   -2.4569   -1.5817   -2.3107 C   0  0
   -1.9349   -0.6024   -1.2098 C   0  0  1  0  0  0
   -2.3810   -1.1241    0.0378 O   0  0
   -4.2836    3.6925   -4.6419 H   0  0
   -0.9198    3.2881   -5.8577 H   0  0
    0.6755    1.7333   -4.7980 H   0  0
    0.2741   -0.7660   -3.2768 H   0  0
    1.2363    0.4182   -2.4703 H   0  0
    0.0675   -1.4605   -0.9818 H   0  0
    1.9397   -0.5957    0.0034 H   0  0
    2.0531    1.1004   -0.5270 H   0  0
    1.4597    0.1502    2.3850 H   0  0
    2.1557    3.0103    1.2703 H   0  0
    1.8472    2.5935    3.0065 H   0  0
    3.7874    0.8950    2.9362 H   0  0
    4.0878    1.3089    1.1988 H   0  0
   -0.2384    2.3447    0.8824 H   0  0
   -0.0155    2.3961   -0.8748 H   0  0
   -2.4480    1.3892    0.7357 H   0  0
   -2.4251    2.7701   -0.3245 H   0  0
   -4.5592    1.3672   -0.8083 H   0  0
   -6.6644    0.3071   -2.3424 H   0  0
   -7.9635   -1.5719   -3.9999 H   0  0
   -9.7830   -3.8023    1.2175 H   0  0
   -8.9082   -5.9061    0.7881 H   0  0
   -7.5455   -7.2907   -0.7301 H   0  0
   -5.4054   -6.7303   -2.6760 H   0  0
   -6.8055   -7.4835   -3.3647 H   0  0
   -5.1600   -6.1064   -4.9207 H   0  0
   -6.7195   -5.0177   -7.2352 H   0  0
   -5.7199   -6.4118   -6.9785 H   0  0
   -8.3557   -6.2646   -8.3742 H   0  0
   -7.6462   -8.7476   -6.5701 H   0  0
   -9.0208   -8.6487   -7.7463 H   0  0
   -7.3509   -8.1637   -9.6507 H   0  0
   -5.9801   -8.2642   -8.4712 H   0  0
   -9.1854   -5.7128   -6.0623 H   0  0
   -8.9369   -6.0355   -4.3963 H   0  0
   -8.2130   -3.4520   -5.8269 H   0  0
   -9.4079   -3.6814   -4.5968 H   0  0
   -5.5765   -2.5787   -5.3380 H   0  0
   -4.8468   -4.4314   -2.4033 H   0  0
   -3.8471   -4.0091   -3.7488 H   0  0
   -2.1981   -2.6117   -2.0596 H   0  0
   -1.9822   -1.3946   -3.2731 H   0  0
   -3.3388   -1.1898    0.0140 H   0  0
   -0.3249   -0.0135    0.7987 H   0  0
  1  2  1  0
  1 50  1  0
  2  3  2  0
  2 18  1  0
  3  4  1  0
  3 51  1  0
  4  5  2  0
  4 52  1  0
  5  6  1  0
  5 19  1  0
  6  7  1  0
  6 53  1  0
  6 54  1  0
  7  8  1  0
  7 48  1  0
  7 55  1  0
  8  9  1  0
  8 13  1  0
  8 93  1  0
  9 10  1  0
  9 56  1  0
  9 57  1  0
 10 11  1  0
 10 12  1  0
 10 58  1  0
 11 12  1  0
 11 59  1  0
 11 60  1  0
 12 61  1  0
 12 62  1  0
 13 14  1  0
 13 63  1  0
 13 64  1  0
 14 15  1  0
 14 65  1  0
 14 66  1  0
 15 16  1  0
 15 19  1  0
 15 48  1  0
 16 17  1  0
 16 20  1  0
 16 67  1  0
 17 18  1  0
 18 19  2  0
 20 21  1  0
 20 46  2  0
 21 22  1  0
 21 68  1  0
 22 23  1  0
 22 45  2  0
 23 24  1  0
 23 40  1  0
 23 69  1  0
 24 25  1  0
 25 26  2  0
 25 41  1  0
 26 27  1  0
 26 28  1  0
 27 70  1  0
 28 29  2  0
 28 71  1  0
 29 30  1  0
 29 72  1  0
 30 31  1  0
 30 41  2  0
 31 32  1  0
 31 73  1  0
 31 74  1  0
 32 33  1  0
 32 42  1  0
 32 75  1  0
 33 34  1  0
 33 38  1  0
 34 35  1  0
 34 76  1  0
 34 77  1  0
 35 36  1  0
 35 37  1  0
 35 78  1  0
 36 37  1  0
 36 79  1  0
 36 80  1  0
 37 81  1  0
 37 82  1  0
 38 39  1  0
 38 83  1  0
 38 84  1  0
 39 40  1  0
 39 85  1  0
 39 86  1  0
 40 41  1  0
 40 42  1  0
 42 43  1  0
 42 44  1  0
 43 87  1  0
 44 45  1  0
 44 88  1  0
 44 89  1  0
 45 46  1  0
 46 47  1  0
 47 48  1  0
 47 90  1  0
 47 91  1  0
 48 49  1  0
 49 92  1  0
M  CHG  1   8   1
M  END
> <Mol2_MolInfo_Name>
11361

> <Mol2_MolInfo_Type>
SMALL

> <Mol2_MolInfo_Charge>
USER_CHARGES

> <Mol2_Substructures>
     1 UNK         1 GROUP             0       ****    0 ROOT    

> <Name>
11361

$$$$
11361
  SciTegic06232017503D

 93105  0  0  0  0            999 V2000
   -4.6065    3.2059    4.0024 O   0  0
   -3.9627    2.3016    3.1998 C   0  0
   -4.6796    1.4563    2.3419 C   0  0
   -4.0107    0.4878    1.5744 C   0  0
   -2.6128    0.3729    1.6144 C   0  0
   -1.8168   -0.7524    0.9440 C   0  0
   -0.2625   -0.5534    1.0328 C   0  0  1  0  0  0
    0.1455    0.3669   -0.1672 N   0  3  2  0  0  0
    1.6425    0.2314   -0.5510 C   0  0
    1.8442    0.5456   -2.0441 C   0  0  2  0  0  0
    3.2411    0.7951   -2.5546 C   0  0
    2.2368    1.9300   -2.5014 C   0  0
   -0.2813    1.8519   -0.0197 C   0  0
    0.0800    2.3707    1.3874 C   0  0
   -0.4432    1.4562    2.5383 C   0  0  1  0  0  0
   -0.4059    2.2103    3.9010 C   0  0  1  0  0  0
   -1.6988    2.8289    4.0729 O   0  0
   -2.5759    2.1803    3.2362 C   0  0
   -1.9309    1.2931    2.4124 C   0  0
   -0.1386    1.2259    5.0344 C   0  0
    0.0496    1.5818    6.3418 N   0  0
    0.2781    0.4594    7.0890 C   0  0
    0.5106    0.4573    8.5965 C   0  0  2  0  0  0
    1.7729    1.0861    8.9037 O   0  0
    2.6910    0.0822    9.1048 C   0  0
    4.0747    0.2058    9.2063 C   0  0
    4.6687    1.4404    9.2069 O   0  0
    4.8418   -0.9655    9.2710 C   0  0
    4.2248   -2.2254    9.1929 C   0  0
    2.8302   -2.3434    9.0951 C   0  0
    2.0889   -3.6674    8.8598 C   0  0
    0.5285   -3.5142    8.9366 C   0  0  1  0  0  0
    0.0975   -3.6544   10.3541 N   0  0
   -1.2672   -4.1783   10.4973 C   0  0
   -1.5383   -4.7625   11.9010 C   0  0  2  0  0  0
   -0.5621   -5.7121   12.5570 C   0  0
   -1.8912   -6.2244   12.0397 C   0  0
    0.3701   -2.4846   11.2121 C   0  0
    0.0138   -1.1396   10.5484 C   0  0
    0.6005   -1.0075    9.1133 C   0  0  2  0  0  0
    2.0966   -1.1541    9.1284 C   0  0
    0.0337   -2.1726    8.2434 C   0  0  2  0  0  0
   -1.3885   -2.1084    8.2074 O   0  0
    0.4755   -2.0650    6.7442 C   0  0
    0.2641   -0.6439    6.2319 C   0  0
   -0.0461   -0.1651    4.9458 C   0  0
   -0.1994   -0.9006    3.6200 C   0  0
    0.2015    0.0307    2.4285 C   0  0  1  0  0  0
    1.6170    0.1464    2.4934 O   0  0
   -4.0026    3.7193    4.5441 H   0  0
   -5.7573    1.5197    2.2993 H   0  0
   -4.5867   -0.1960    0.9679 H   0  0
   -2.0848   -1.6977    1.4176 H   0  0
   -2.1367   -0.8499   -0.0947 H   0  0
    0.2121   -1.5169    0.8403 H   0  0
    2.2229    0.8776    0.1077 H   0  0
    1.9138   -0.8071   -0.3589 H   0  0
    1.2040   -0.0596   -2.6877 H   0  0
    4.0690    0.7851   -1.8447 H   0  0
    3.5205    0.3773   -3.5222 H   0  0
    1.8111    2.3067   -3.4318 H   0  0
    2.3746    2.7169   -1.7593 H   0  0
    0.2044    2.4310   -0.8024 H   0  0
   -1.3516    1.8770   -0.2222 H   0  0
    1.1601    2.5017    1.4604 H   0  0
   -0.3425    3.3721    1.4882 H   0  0
    0.3864    2.9600    3.9372 H   0  0
    0.0215    2.5255    6.7011 H   0  0
   -0.3154    1.0071    9.0506 H   0  0
    5.6256    1.3953    9.2675 H   0  0
    5.9181   -0.9045    9.3382 H   0  0
    4.8378   -3.1147    9.1821 H   0  0
    2.3828   -4.1290    7.9168 H   0  0
    2.4315   -4.3576    9.6331 H   0  0
    0.0970   -4.3458    8.3767 H   0  0
   -2.0088   -3.4109   10.2771 H   0  0
   -1.4362   -4.9640    9.7596 H   0  0
   -2.1083   -4.0759   12.5277 H   0  0
    0.3522   -5.9765   12.0249 H   0  0
   -0.4057   -5.6254   13.6322 H   0  0
   -2.6679   -6.5015   12.7527 H   0  0
   -1.9059   -6.8515   11.1479 H   0  0
   -0.0961   -2.5919   12.1918 H   0  0
    1.4379   -2.4953   11.4309 H   0  0
   -1.0700   -1.0168   10.5550 H   0  0
    0.3911   -0.3392   11.1868 H   0  0
   -1.6439   -1.2685    7.8195 H   0  0
    1.5261   -2.3181    6.6100 H   0  0
   -0.0675   -2.7876    6.1327 H   0  0
    0.3962   -1.8150    3.6077 H   0  0
   -1.2331   -1.2347    3.5411 H   0  0
    1.8530    0.4983    3.3552 H   0  0
   -0.3522    0.0027   -0.9673 H   0  0
  1  2  1  0
  1 50  1  0
  2  3  2  0
  2 18  1  0
  3  4  1  0
  3 51  1  0
  4  5  2  0
  4 52  1  0
  5  6  1  0
  5 19  1  0
  6  7  1  0
  6 53  1  0
  6 54  1  0
  7  8  1  0
  7 48  1  0
  7 55  1  0
  8  9  1  0
  8 13  1  0
  8 93  1  0
  9 10  1  0
  9 56  1  0
  9 57  1  0
 10 11  1  0
 10 12  1  0
 10 58  1  0
 11 12  1  0
 11 59  1  0
 11 60  1  0
 12 61  1  0
 12 62  1  0
 13 14  1  0
 13 63  1  0
 13 64  1  0
 14 15  1  0
 14 65  1  0
 14 66  1  0
 15 16  1  0
 15 19  1  0
 15 48  1  0
 16 17  1  0
 16 20  1  0
 16 67  1  0
 17 18  1  0
 18 19  2  0
 20 21  1  0
 20 46  2  0
 21 22  1  0
 21 68  1  0
 22 23  1  0
 22 45  2  0
 23 24  1  0
 23 40  1  0
 23 69  1  0
 24 25  1  0
 25 26  2  0
 25 41  1  0
 26 27  1  0
 26 28  1  0
 27 70  1  0
 28 29  2  0
 28 71  1  0
 29 30  1  0
 29 72  1  0
 30 31  1  0
 30 41  2  0
 31 32  1  0
 31 73  1  0
 31 74  1  0
 32 33  1  0
 32 42  1  0
 32 75  1  0
 33 34  1  0
 33 38  1  0
 34 35  1  0
 34 76  1  0
 34 77  1  0
 35 36  1  0
 35 37  1  0
 35 78  1  0
 36 37  1  0
 36 79  1  0
 36 80  1  0
 37 81  1  0
 37 82  1  0
 38 39  1  0
 38 83  1  0
 38 84  1  0
 39 40  1  0
 39 85  1  0
 39 86  1  0
 40 41  1  0
 40 42  1  0
 42 43  1  0
 42 44  1  0
 43 87  1  0
 44 45  1  0
 44 88  1  0
 44 89  1  0
 45 46  1  0
 46 47  1  0
 47 48  1  0
 47 90  1  0
 47 91  1  0
 48 49  1  0
 49 92  1  0
M  CHG  1   8   1
M  END
> <Mol2_MolInfo_Name>
11361

> <Mol2_MolInfo_Type>
SMALL

> <Mol2_MolInfo_Charge>
USER_CHARGES

> <Mol2_Substructures>
     1 UNK         1 GROUP             0       ****    0 ROOT    

> <Name>
11361

$$$$
11378
  SciTegic06232017503D

 23 22  0  0  0  0            999 V2000
   -2.0243    1.9332    0.0001 C   0  0
   -0.7169    1.2433    0.0000 N   0  0
    0.3813    2.2331    0.0001 C   0  0
   -0.5695   -0.1430   -0.0001 C   0  0
   -1.8646   -1.2103   -0.0004 S   0  0
    1.1793   -0.6227    0.0000 S   0  0
    1.7219   -2.3530    0.0001 C   0  0
    0.7021   -3.6859    0.0003 S   0  0
    3.1126   -2.4502    0.0000 N   0  0
    4.0622   -1.3169    0.0001 C   0  0
    3.8493   -3.7319    0.0000 C   0  0
   -2.9069    1.2965    0.0002 H   0  0
   -2.1025    2.5740   -0.8790 H   0  0
   -2.1023    2.5739    0.8793 H   0  0
    1.4019    1.8607   -0.0001 H   0  0
    0.2913    2.8745    0.8776 H   0  0
    0.2911    2.8747   -0.8774 H   0  0
    3.6530   -0.3105    0.0000 H   0  0
    4.7064   -1.3838   -0.8774 H   0  0
    4.7063   -1.3838    0.8776 H   0  0
    3.2450   -4.6368   -0.0002 H   0  0
    4.4924   -3.7868    0.8793 H   0  0
    4.4927   -3.7866   -0.8791 H   0  0
  1  2  1  0
  1 12  1  0
  1 13  1  0
  1 14  1  0
  2  3  1  0
  2  4  1  0
  3 15  1  0
  3 16  1  0
  3 17  1  0
  4  5  2  0
  4  6  1  0
  6  7  1  0
  7  8  2  0
  7  9  1  0
  9 10  1  0
  9 11  1  0
 10 18  1  0
 10 19  1  0
 10 20  1  0
 11 21  1  0
 11 22  1  0
 11 23  1  0
M  END
> <Mol2_MolInfo_Name>
11378

> <Mol2_MolInfo_Type>
SMALL

> <Mol2_MolInfo_Charge>
USER_CHARGES

> <Mol2_Substructures>
     1 UNK         1 GROUP             0       ****    0 ROOT    

> <Name>
11378

$$$$
11418
  SciTegic06232017503D

 38 41  0  0  0  0            999 V2000
   -1.5447   -0.8657    1.1907 O   0  0
   -1.0392    0.3382    0.7692 C   0  0
   -0.6735    1.2797    1.7233 C   0  0
   -0.1501    2.5104    1.3444 C   0  0
    0.0151    2.8364   -0.0245 C   0  0
    0.5442    4.0942   -0.4087 C   0  0
    0.7050    4.4128   -1.7524 C   0  0
    0.3477    3.5028   -2.7379 C   0  0
   -0.1744    2.2588   -2.3976 C   0  0
   -0.3552    1.8854   -1.0310 C   0  0
   -0.8727    0.6214   -0.5896 C   0  0
   -1.3177   -0.5592   -1.8471 S   0  0
    0.5044   -1.3392   -2.3456 S   0  0
    0.9041   -2.2721   -0.8826 C   0  0
    0.3756   -3.5452   -0.6529 C   0  0
   -0.4848   -4.1326   -1.5457 O   0  0
    0.7145   -4.2369    0.5040 C   0  0
    1.5804   -3.6803    1.4386 C   0  0
    2.1444   -2.3974    1.2297 C   0  0
    3.0258   -1.8307    2.1846 C   0  0
    3.5759   -0.5705    1.9789 C   0  0
    3.2731    0.1497    0.8316 C   0  0
    2.4153   -0.3770   -0.1285 C   0  0
    1.8186   -1.6639    0.0423 C   0  0
   -1.5962   -0.9348    2.1464 H   0  0
   -0.7922    1.0578    2.7739 H   0  0
    0.1312    3.2294    2.1004 H   0  0
    0.8247    4.8095    0.3510 H   0  0
    1.1104    5.3742   -2.0316 H   0  0
    0.4778    3.7627   -3.7782 H   0  0
   -0.4373    1.5790   -3.1935 H   0  0
   -0.7871   -4.9970   -1.2590 H   0  0
    0.3020   -5.2186    0.6868 H   0  0
    1.8292   -4.2312    2.3344 H   0  0
    3.2691   -2.3838    3.0806 H   0  0
    4.2437   -0.1489    2.7157 H   0  0
    3.7061    1.1282    0.6836 H   0  0
    2.2029    0.2176   -1.0036 H   0  0
  1  2  1  0
  1 25  1  0
  2  3  2  0
  2 11  1  0
  3  4  1  0
  3 26  1  0
  4  5  2  0
  4 27  1  0
  5  6  1  0
  5 10  1  0
  6  7  2  0
  6 28  1  0
  7  8  1  0
  7 29  1  0
  8  9  2  0
  8 30  1  0
  9 10  1  0
  9 31  1  0
 10 11  2  0
 11 12  1  0
 12 13  1  0
 13 14  1  0
 14 15  2  0
 14 24  1  0
 15 16  1  0
 15 17  1  0
 16 32  1  0
 17 18  2  0
 17 33  1  0
 18 19  1  0
 18 34  1  0
 19 20  2  0
 19 24  1  0
 20 21  1  0
 20 35  1  0
 21 22  2  0
 21 36  1  0
 22 23  1  0
 22 37  1  0
 23 24  2  0
 23 38  1  0
M  END
> <Mol2_MolInfo_Name>
11418

> <Mol2_MolInfo_Type>
SMALL

> <Mol2_MolInfo_Charge>
USER_CHARGES

> <Mol2_Substructures>
     1 UNK         1 GROUP             0       ****    0 ROOT    

> <Name>
11418

$$$$
11420
  SciTegic06232017503D

 43 46  0  0  0  0            999 V2000
   -6.2625    2.1859    0.2511 C   0  0
   -4.7968    1.9350    0.6180 C   0  0
   -4.2500    0.9924   -0.2997 O   0  0
   -2.9256    0.6170   -0.1783 C   0  0
   -2.4517   -0.3043   -1.1115 C   0  0
   -1.1302   -0.7400   -1.0717 C   0  0
   -0.2559   -0.2504   -0.0928 C   0  0
    1.0900   -0.6474    0.0175 N   0  0
    1.9111   -1.2338   -0.9199 C   0  0
    1.6538   -1.4418   -2.1888 N   0  0
    2.6585   -2.0055   -2.8359 C   0  0
    3.7888   -2.2435   -2.0565 C   0  0
    3.5023   -1.7094   -0.4288 S   0  0
    2.5433   -2.3244   -4.2538 C   0  0
    3.4241   -2.0676   -5.3152 C   0  0
    4.7592   -1.3565   -5.2890 C   0  0
    2.9751   -2.5183   -6.4694 N   0  0
    1.7807   -3.0932   -6.1920 C   0  0
    0.8631   -3.7368   -7.0440 C   0  0
   -0.3125   -4.2609   -6.5025 C   0  0
   -0.5842   -4.1569   -5.1408 C   0  0
    0.3223   -3.5200   -4.2982 C   0  0
    1.4797   -2.9961   -4.8223 N   0  0
   -0.7322    0.6603    0.8520 C   0  0
   -2.0536    1.0968    0.8105 C   0  0
   -6.7179    2.9044    0.9329 H   0  0
   -6.8433    1.2643    0.3012 H   0  0
   -6.3517    2.5832   -0.7603 H   0  0
   -4.2444    2.8754    0.5747 H   0  0
   -4.7359    1.5521    1.6383 H   0  0
   -3.1145   -0.6884   -1.8731 H   0  0
   -0.8143   -1.4675   -1.8024 H   0  0
    1.5112   -0.3061    0.8692 H   0  0
    4.7310   -2.6841   -2.3475 H   0  0
    4.9913   -0.9449   -4.3071 H   0  0
    4.7854   -0.5223   -5.9907 H   0  0
    5.5768   -2.0273   -5.5542 H   0  0
    1.0623   -3.8277   -8.1016 H   0  0
   -1.0220   -4.7570   -7.1490 H   0  0
   -1.4975   -4.5706   -4.7386 H   0  0
    0.1614   -3.4143   -3.2357 H   0  0
   -0.0780    1.0425    1.6227 H   0  0
   -2.3820    1.8066    1.5542 H   0  0
  1  2  1  0
  1 26  1  0
  1 27  1  0
  1 28  1  0
  2  3  1  0
  2 29  1  0
  2 30  1  0
  3  4  1  0
  4  5  2  0
  4 25  1  0
  5  6  1  0
  5 31  1  0
  6  7  2  0
  6 32  1  0
  7  8  1  0
  7 24  1  0
  8  9  1  0
  8 33  1  0
  9 10  2  0
  9 13  1  0
 10 11  1  0
 11 12  2  0
 11 14  1  0
 12 13  1  0
 12 34  1  0
 14 15  2  0
 14 23  1  0
 15 16  1  0
 15 17  1  0
 16 35  1  0
 16 36  1  0
 16 37  1  0
 17 18  2  0
 18 19  1  0
 18 23  1  0
 19 20  2  0
 19 38  1  0
 20 21  1  0
 20 39  1  0
 21 22  2  0
 21 40  1  0
 22 23  1  0
 22 41  1  0
 24 25  2  0
 24 42  1  0
 25 43  1  0
M  END
> <Mol2_MolInfo_Name>
11420

> <Mol2_MolInfo_Type>
SMALL

> <Mol2_MolInfo_Charge>
USER_CHARGES

> <Mol2_Substructures>
     1 UNK         1 GROUP             0       ****    0 ROOT    

> <Name>
11420

$$$$
11420
  SciTegic06232017503D

 44 47  0  0  0  0            999 V2000
   -6.2446    2.2132    0.2781 C   0  0
   -4.7733    1.9697    0.6262 C   0  0
   -4.2441    0.9998   -0.2736 O   0  0
   -2.9194    0.6223   -0.1614 C   0  0
   -2.4623   -0.3252   -1.0771 C   0  0
   -1.1419   -0.7651   -1.0444 C   0  0
   -0.2524   -0.2530   -0.0912 C   0  0
    1.0923   -0.6550    0.0109 N   0  0
    1.9012   -1.2541   -0.9288 C   0  0
    1.6349   -1.4640   -2.1962 N   0  0
    2.6330   -2.0355   -2.8469 C   0  0
    3.7651   -2.2818   -2.0720 C   0  0
    3.4907   -1.7418   -0.4442 S   0  0
    2.5154   -2.3486   -4.2660 C   0  0  1  0  0  0
    3.4109   -2.0775   -5.3040 C   0  0  2  0  0  0
    4.7512   -1.3791   -5.3229 C   0  0
    2.8739   -2.5712   -6.4721 N   0  0
    1.6743   -3.1535   -6.2358 C   0  0  1  0  0  0
    0.7378   -3.7971   -7.0609 C   0  0
   -0.4212   -4.3033   -6.4706 C   0  0
   -0.6467   -4.1776   -5.1011 C   0  0
    0.2881   -3.5365   -4.2902 C   0  0
    1.4381   -3.0229   -4.8435 N   0  0  1  0  0  0
   -0.7113    0.6841    0.8361 C   0  0
   -2.0316    1.1242    0.8022 C   0  0
   -6.6872    2.9521    0.9463 H   0  0
   -6.8257    1.2948    0.3652 H   0  0
   -6.3511    2.5813   -0.7426 H   0  0
   -4.2194    2.9068    0.5465 H   0  0
   -4.6950    1.6166    1.6559 H   0  0
   -3.1382   -0.7274   -1.8178 H   0  0
   -0.8373   -1.5140   -1.7582 H   0  0
    1.5249   -0.2959    0.8497 H   0  0
    4.7034   -2.7294   -2.3652 H   0  0
    4.9956   -0.9321   -4.3592 H   0  0
    4.7755   -0.5738   -6.0578 H   0  0
    5.5599   -2.0663   -5.5724 H   0  0
    0.9057   -3.9025   -8.1228 H   0  0
   -1.1560   -4.8035   -7.0848 H   0  0
   -1.5503   -4.5800   -4.6661 H   0  0
    0.1508   -3.4228   -3.2251 H   0  0
   -0.0447    1.0834    1.5874 H   0  0
   -2.3467    1.8545    1.5317 H   0  0
    3.3217   -2.5033   -7.3749 H   0  0
  1  2  1  0
  1 26  1  0
  1 27  1  0
  1 28  1  0
  2  3  1  0
  2 29  1  0
  2 30  1  0
  3  4  1  0
  4  5  2  0
  4 25  1  0
  5  6  1  0
  5 31  1  0
  6  7  2  0
  6 32  1  0
  7  8  1  0
  7 24  1  0
  8  9  1  0
  8 33  1  0
  9 10  2  0
  9 13  1  0
 10 11  1  0
 11 12  2  0
 11 14  1  0
 12 13  1  0
 12 34  1  0
 14 15  4  0
 14 23  4  0
 15 16  1  0
 15 17  4  0
 16 35  1  0
 16 36  1  0
 16 37  1  0
 17 18  4  0
 17 44  1  0
 18 19  4  0
 18 23  4  0
 19 20  4  0
 19 38  1  0
 20 21  4  0
 20 39  1  0
 21 22  4  0
 21 40  1  0
 22 23  4  0
 22 41  1  0
 24 25  2  0
 24 42  1  0
 25 43  1  0
M  END
> <Mol2_MolInfo_Name>
11420

> <Mol2_MolInfo_Type>
SMALL

> <Mol2_MolInfo_Charge>
USER_CHARGES

> <Mol2_Substructures>
     1 UNK         1 GROUP             0       ****    0 ROOT    

> <Name>
11420

$$$$
11438
  SciTegic06232017503D

 22 22  0  0  0  0            999 V2000
   -0.6755    1.1207   -0.3460 C   0  0
    0.2857   -0.0195    0.0363 C   0  0
    1.7177    0.1515   -0.4853 C   0  0
    2.0639    1.1340   -1.1475 O   0  0
    2.5074   -0.9018   -0.1186 O   0  0
    3.8443   -0.9199   -0.5653 C   0  0
    3.9421   -1.3329   -1.9549 N   0  0
    4.3995   -0.5445   -2.9513 C   0  0
    4.8125    0.6116   -2.8569 O   0  0
    4.3084   -1.3284   -4.1419 C   0  0
    3.8083   -2.5228   -3.8221 C   0  0
    3.5617   -2.5448   -2.4155 C   0  0
    3.0989   -3.4775   -1.7581 O   0  0
   -1.6715    0.9337    0.0558 H   0  0
   -0.7722    1.2176   -1.4283 H   0  0
   -0.3376    2.0797    0.0495 H   0  0
    0.3255   -0.1090    1.1224 H   0  0
   -0.1058   -0.9633   -0.3448 H   0  0
    4.3674    0.0191   -0.3590 H   0  0
    4.3475   -1.6668    0.0517 H   0  0
    4.5973   -0.9979   -5.1288 H   0  0
    3.6165   -3.3405   -4.5015 H   0  0
  1  2  1  0
  1 14  1  0
  1 15  1  0
  1 16  1  0
  2  3  1  0
  2 17  1  0
  2 18  1  0
  3  4  2  0
  3  5  1  0
  5  6  1  0
  6  7  1  0
  6 19  1  0
  6 20  1  0
  7  8  1  0
  7 12  1  0
  8  9  2  0
  8 10  1  0
 10 11  2  0
 10 21  1  0
 11 12  1  0
 11 22  1  0
 12 13  2  0
M  END
> <Mol2_MolInfo_Name>
11438

> <Mol2_MolInfo_Type>
SMALL

> <Mol2_MolInfo_Charge>
USER_CHARGES

> <Mol2_Substructures>
     1 UNK         1 GROUP             0       ****    0 ROOT    

> <Name>
11438

$$$$
11450
  SciTegic06232017503D

 61 64  0  0  0  0            999 V2000
   -2.1990    0.4907    2.1652 C   0  0
   -2.2080    0.8869    0.6794 C   0  0
   -0.8060    1.1693    0.0894 C   0  0  2  0  0  0
   -0.8821    1.7963   -1.3241 C   0  0
   -1.3325    3.1342   -1.2516 O   0  0
    0.0465   -0.0222    0.1133 N   0  0
    1.4490    0.0263    0.0632 C   0  0
    2.0580   -1.1889    0.0800 N   0  0
    3.4198   -1.2331    0.0284 C   0  0
    4.0895   -2.4667    0.0447 N   0  0
    3.3716   -3.7297    0.1923 C   0  0
    4.3059   -4.9329    0.1212 C   0  0
    5.2940   -5.0248   -0.8625 C   0  0
    6.1306   -6.1361   -0.9115 C   0  0
    5.9996   -7.1818    0.0141 C   0  0
    4.9923   -7.0804    0.9869 C   0  0
    4.1528   -5.9712    1.0395 C   0  0
    6.9085   -8.3733   -0.0435 C   0  0
    8.1953   -8.3118   -0.6034 C   0  0
    8.9928   -9.4578   -0.6141 C   0  0
    8.5021  -10.6423   -0.0659 C   0  0
    7.2205  -10.6371    0.4824 C   0  0
    6.4337   -9.5315    0.5008 N   0  0
    4.1541   -0.0358   -0.0433 C   0  0
    5.4986    0.2226   -0.1083 N   0  0
    5.5671    1.5302   -0.1557 C   0  0
    4.3463    2.1760   -0.1283 N   0  0
    4.1379    3.6269   -0.1689 C   0  0  2  0  0  0
    3.4901    4.1110    1.1420 C   0  0
    3.3213    4.0199   -1.4152 C   0  0
    3.4051    1.1642   -0.0516 C   0  0
    2.0711    1.2396    0.0036 N   0  0
   -3.2144    0.3331    2.5305 H   0  0
   -1.7455    1.2703    2.7781 H   0  0
   -1.6434   -0.4326    2.3316 H   0  0
   -2.7000    0.1042    0.0998 H   0  0
   -2.8358    1.7718    0.5672 H   0  0
   -0.3215    1.8964    0.7444 H   0  0
    0.0996    1.8400   -1.7965 H   0  0
   -1.5451    1.2299   -1.9792 H   0  0
   -1.3444    3.5002   -2.1390 H   0  0
   -0.4013   -0.9252    0.1714 H   0  0
    5.0994   -2.4800    0.0525 H   0  0
    2.8272   -3.7285    1.1380 H   0  0
    2.6165   -3.8235   -0.5895 H   0  0
    5.4144   -4.2388   -1.5938 H   0  0
    6.8767   -6.1774   -1.6909 H   0  0
    4.8550   -7.8624    1.7198 H   0  0
    3.3882   -5.9207    1.8013 H   0  0
    8.5872   -7.3948   -1.0170 H   0  0
    9.9845   -9.4260   -1.0404 H   0  0
    9.1018  -11.5407   -0.0629 H   0  0
    6.8049  -11.5325    0.9208 H   0  0
    6.4775    2.1094   -0.2125 H   0  0
    5.1199    4.0964   -0.2510 H   0  0
    3.4036    5.1978    1.1547 H   0  0
    4.0854    3.8223    2.0092 H   0  0
    2.4874    3.7036    1.2770 H   0  0
    3.2324    5.1037   -1.4957 H   0  0
    2.3095    3.6138   -1.3867 H   0  0
    3.7965    3.6633   -2.3300 H   0  0
  1  2  1  0
  1 33  1  0
  1 34  1  0
  1 35  1  0
  2  3  1  0
  2 36  1  0
  2 37  1  0
  3  4  1  0
  3  6  1  0
  3 38  1  0
  4  5  1  0
  4 39  1  0
  4 40  1  0
  5 41  1  0
  6  7  1  0
  6 42  1  0
  7  8  2  0
  7 32  1  0
  8  9  1  0
  9 10  1  0
  9 24  2  0
 10 11  1  0
 10 43  1  0
 11 12  1  0
 11 44  1  0
 11 45  1  0
 12 13  2  0
 12 17  1  0
 13 14  1  0
 13 46  1  0
 14 15  2  0
 14 47  1  0
 15 16  1  0
 15 18  1  0
 16 17  2  0
 16 48  1  0
 17 49  1  0
 18 19  2  0
 18 23  1  0
 19 20  1  0
 19 50  1  0
 20 21  2  0
 20 51  1  0
 21 22  1  0
 21 52  1  0
 22 23  2  0
 22 53  1  0
 24 25  1  0
 24 31  1  0
 25 26  2  0
 26 27  1  0
 26 54  1  0
 27 28  1  0
 27 31  1  0
 28 29  1  0
 28 30  1  0
 28 55  1  0
 29 56  1  0
 29 57  1  0
 29 58  1  0
 30 59  1  0
 30 60  1  0
 30 61  1  0
 31 32  2  0
M  END
> <Mol2_MolInfo_Name>
11450

> <Mol2_MolInfo_Type>
SMALL

> <Mol2_MolInfo_Charge>
USER_CHARGES

> <Mol2_Substructures>
     1 UNK         1 GROUP             0       ****    0 ROOT    

> <Name>
11450

$$$$
11456
  SciTegic06232017503D

 51 53  0  0  0  0            999 V2000
   -0.1280   -2.2850   -1.0447 C   0  0
   -0.3938   -0.8226   -1.4483 C   0  0  2  0  0  0
    0.1822   -0.4492   -2.8297 C   0  0
    0.1142    0.1323   -0.3296 N   0  3  1  0  0  0
    1.6606    0.2319   -0.2198 C   0  0
    2.1371    0.7637    1.1570 C   0  0
    1.5930    0.0493    2.4142 C   0  0
    0.8918   -0.9569    2.2857 O   0  0
    1.9229    0.6448    3.7513 C   0  0
    1.3506    0.0978    4.9060 C   0  0
    1.6337    0.6094    6.1689 C   0  0
    2.5188    1.7019    6.3167 C   0  0
    2.8314    2.2441    7.5886 C   0  0
    3.7096    3.3193    7.6974 C   0  0
    4.2909    3.8750    6.5626 C   0  0
    4.0045    3.3657    5.2986 C   0  0
    3.1146    2.2716    5.1515 C   0  0
    2.8035    1.7286    3.8798 C   0  0
   -0.5691    1.5235   -0.3390 C   0  0
   -2.0647    1.4864   -0.0646 C   0  0
   -2.9743    1.7150   -1.1007 C   0  0
   -4.3421    1.6891   -0.8411 C   0  0
   -4.7947    1.4396    0.4529 C   0  0
   -3.8920    1.2179    1.4911 C   0  0
   -2.5240    1.2444    1.2329 C   0  0
   -0.6240   -2.9693   -1.7338 H   0  0
   -0.5123   -2.4976   -0.0461 H   0  0
    0.9317   -2.5373   -1.0545 H   0  0
   -1.4746   -0.6812   -1.4522 H   0  0
   -0.2483   -1.0808   -3.6073 H   0  0
    1.2635   -0.5816   -2.8710 H   0  0
   -0.0407    0.5828   -3.0991 H   0  0
    2.0672   -0.7626   -0.3985 H   0  0
    1.9770    0.8785   -1.0396 H   0  0
    3.2248    0.6980    1.1911 H   0  0
    1.9178    1.8286    1.2278 H   0  0
    0.6707   -0.7402    4.8403 H   0  0
    1.1778    0.1701    7.0448 H   0  0
    2.3852    1.8173    8.4753 H   0  0
    3.9421    3.7253    8.6710 H   0  0
    4.9707    4.7085    6.6632 H   0  0
    4.4620    3.8042    4.4232 H   0  0
    3.2739    2.1769    3.0165 H   0  0
   -0.0776    2.1114    0.4354 H   0  0
   -0.3280    1.9713   -1.3039 H   0  0
   -2.6256    1.9081   -2.1050 H   0  0
   -5.0493    1.8625   -1.6390 H   0  0
   -5.8558    1.4196    0.6537 H   0  0
   -4.2519    1.0272    2.4916 H   0  0
   -1.8240    1.0732    2.0384 H   0  0
   -0.1859   -0.3035    0.5317 H   0  0
  1  2  1  0
  1 26  1  0
  1 27  1  0
  1 28  1  0
  2  3  1  0
  2  4  1  0
  2 29  1  0
  3 30  1  0
  3 31  1  0
  3 32  1  0
  4  5  1  0
  4 19  1  0
  4 51  1  0
  5  6  1  0
  5 33  1  0
  5 34  1  0
  6  7  1  0
  6 35  1  0
  6 36  1  0
  7  8  2  0
  7  9  1  0
  9 10  2  0
  9 18  1  0
 10 11  1  0
 10 37  1  0
 11 12  2  0
 11 38  1  0
 12 13  1  0
 12 17  1  0
 13 14  2  0
 13 39  1  0
 14 15  1  0
 14 40  1  0
 15 16  2  0
 15 41  1  0
 16 17  1  0
 16 42  1  0
 17 18  2  0
 18 43  1  0
 19 20  1  0
 19 44  1  0
 19 45  1  0
 20 21  2  0
 20 25  1  0
 21 22  1  0
 21 46  1  0
 22 23  2  0
 22 47  1  0
 23 24  1  0
 23 48  1  0
 24 25  2  0
 24 49  1  0
 25 50  1  0
M  CHG  1   4   1
M  END
> <Mol2_MolInfo_Name>
11456

> <Mol2_MolInfo_Type>
SMALL

> <Mol2_MolInfo_Charge>
USER_CHARGES

> <Mol2_Substructures>
     1 UNK         1 GROUP             0       ****    0 ROOT    

> <Name>
11456

$$$$
11456
  SciTegic06232017503D

 51 53  0  0  0  0            999 V2000
    0.0941   -1.9311    2.0553 C   0  0
   -0.7616   -0.7308    1.5931 C   0  0  2  0  0  0
   -2.2030   -1.1923    1.2846 C   0  0
   -0.1766   -0.0148    0.3345 N   0  3  2  0  0  0
    1.3764   -0.0095    0.2372 C   0  0
    1.8658    0.6728   -1.0585 C   0  0
    3.3553    0.4730   -1.3921 C   0  0
    4.0566   -0.2232   -0.6548 O   0  0
    3.8849    1.1715   -2.6104 C   0  0
    5.2459    1.0766   -2.9226 C   0  0
    5.7787    1.7094   -4.0422 C   0  0
    4.9486    2.4689   -4.8990 C   0  0
    5.4587    3.1258   -6.0468 C   0  0
    4.6115    3.8650   -6.8683 C   0  0
    3.2557    3.9690   -6.5753 C   0  0
    2.7229    3.3355   -5.4556 C   0  0
    3.5578    2.5753   -4.5982 C   0  0
    3.0474    1.9190   -3.4516 C   0  0
   -0.7948    1.4015    0.1423 C   0  0
   -1.0344    1.7997   -1.3086 C   0  0
   -1.7764    0.9635   -2.1480 C   0  0
   -1.9841    1.3201   -3.4778 C   0  0
   -1.4551    2.5142   -3.9631 C   0  0
   -0.7250    3.3582   -3.1292 C   0  0
   -0.5170    3.0024   -1.7992 C   0  0
   -0.3764   -2.4408    2.8969 H   0  0
    1.0818   -1.6227    2.3989 H   0  0
    0.2212   -2.6676    1.2607 H   0  0
   -0.7538    0.0325    2.3738 H   0  0
   -2.6456   -1.6856    2.1505 H   0  0
   -2.2216   -1.9060    0.4600 H   0  0
   -2.8706   -0.3735    1.0209 H   0  0
    1.7207    0.4988    1.1396 H   0  0
    1.6705   -1.0590    0.2445 H   0  0
    1.2791    0.3210   -1.9076 H   0  0
    1.7162    1.7481   -0.9715 H   0  0
    5.9168    0.5068   -2.2947 H   0  0
    6.8331    1.6217   -4.2616 H   0  0
    6.5109    3.0501   -6.2818 H   0  0
    5.0098    4.3620   -7.7407 H   0  0
    2.6115    4.5463   -7.2223 H   0  0
    1.6683    3.4220   -5.2356 H   0  0
    1.9902    2.0159   -3.2526 H   0  0
   -1.7476    1.4316    0.6679 H   0  0
   -0.1258    2.0881    0.6650 H   0  0
   -2.1863    0.0361   -1.7744 H   0  0
   -2.5523    0.6735   -4.1306 H   0  0
   -1.6155    2.7901   -4.9951 H   0  0
   -0.3207    4.2834   -3.5132 H   0  0
    0.0527    3.6581   -1.1566 H   0  0
   -0.4924   -0.5668   -0.4505 H   0  0
  1  2  1  0
  1 26  1  0
  1 27  1  0
  1 28  1  0
  2  3  1  0
  2  4  1  0
  2 29  1  0
  3 30  1  0
  3 31  1  0
  3 32  1  0
  4  5  1  0
  4 19  1  0
  4 51  1  0
  5  6  1  0
  5 33  1  0
  5 34  1  0
  6  7  1  0
  6 35  1  0
  6 36  1  0
  7  8  2  0
  7  9  1  0
  9 10  2  0
  9 18  1  0
 10 11  1  0
 10 37  1  0
 11 12  2  0
 11 38  1  0
 12 13  1  0
 12 17  1  0
 13 14  2  0
 13 39  1  0
 14 15  1  0
 14 40  1  0
 15 16  2  0
 15 41  1  0
 16 17  1  0
 16 42  1  0
 17 18  2  0
 18 43  1  0
 19 20  1  0
 19 44  1  0
 19 45  1  0
 20 21  2  0
 20 25  1  0
 21 22  1  0
 21 46  1  0
 22 23  2  0
 22 47  1  0
 23 24  1  0
 23 48  1  0
 24 25  2  0
 24 49  1  0
 25 50  1  0
M  CHG  1   4   1
M  END
> <Mol2_MolInfo_Name>
11456

> <Mol2_MolInfo_Type>
SMALL

> <Mol2_MolInfo_Charge>
USER_CHARGES

> <Mol2_Substructures>
     1 UNK         1 GROUP             0       ****    0 ROOT    

> <Name>
11456

$$$$
11508
  SciTegic06232017503D

 33 35  0  0  0  0            999 V2000
   -0.2096    2.4755   -0.0014 O   0  0
   -0.7330    1.2160   -0.0008 C   0  0
    0.0149    0.0909   -0.0006 C   0  0
   -0.4896   -1.1680   -0.0004 O   0  0
   -1.8599   -1.3314   -0.0003 C   0  0
   -2.3089   -2.6493   -0.0003 C   0  0
   -3.6731   -2.9134   -0.0001 C   0  0
   -4.1187   -4.2071    0.0001 O   0  0
   -4.5835   -1.8606    0.0001 C   0  0
   -4.1395   -0.5362    0.0002 C   0  0
   -5.1037    0.4405    0.0008 O   0  0
   -2.7572   -0.2427   -0.0002 C   0  0
   -2.2047    1.1653   -0.0003 C   0  0
   -2.9270    2.1645    0.0000 O   0  0
    1.4839    0.0509   -0.0008 C   0  0
    2.1881    0.0149   -1.2068 C   0  0
    3.5826   -0.0465   -1.2122 C   0  0
    4.2439   -0.0757   -2.4146 O   0  0
    4.2872   -0.0798   -0.0011 C   0  0
    5.6609   -0.1406   -0.0043 O   0  0
    3.5827   -0.0535    1.2106 C   0  0
    4.2418   -0.0900    2.4140 O   0  0
    2.1881    0.0079    1.2051 C   0  0
   -0.9225    3.1200   -0.0003 H   0  0
   -1.5974   -3.4622   -0.0002 H   0  0
   -5.0762   -4.2698    0.0000 H   0  0
   -5.6433   -2.0728    0.0006 H   0  0
   -5.9953    0.0860    0.0008 H   0  0
    1.6481    0.0361   -2.1429 H   0  0
    3.6538   -0.0430   -3.1709 H   0  0
    6.0288   -0.1567   -0.8911 H   0  0
    3.6507   -0.0643    3.1695 H   0  0
    1.6486    0.0241    2.1416 H   0  0
  1  2  1  0
  1 24  1  0
  2  3  2  0
  2 13  1  0
  3  4  1  0
  3 15  1  0
  4  5  1  0
  5  6  2  0
  5 12  1  0
  6  7  1  0
  6 25  1  0
  7  8  1  0
  7  9  2  0
  8 26  1  0
  9 10  1  0
  9 27  1  0
 10 11  1  0
 10 12  2  0
 11 28  1  0
 12 13  1  0
 13 14  2  0
 15 16  2  0
 15 23  1  0
 16 17  1  0
 16 29  1  0
 17 18  1  0
 17 19  2  0
 18 30  1  0
 19 20  1  0
 19 21  1  0
 20 31  1  0
 21 22  1  0
 21 23  2  0
 22 32  1  0
 23 33  1  0
M  END
> <Mol2_MolInfo_Name>
11508

> <Mol2_MolInfo_Type>
SMALL

> <Mol2_MolInfo_Charge>
USER_CHARGES

> <Mol2_Substructures>
     1 UNK         1 GROUP             0       ****    0 ROOT    

> <Name>
11508

$$$$
11520
  SciTegic06232017503D

 42 43  0  0  0  0            999 V2000
   -2.8173    2.7033    0.5228 C   0  0
   -2.2036    1.3307    0.2156 C   0  0
   -0.6725    1.3843    0.0382 C   0  0
   -0.0011    0.0077   -0.1823 C   0  0  2  0  0  0
    1.4599    0.1460   -0.1063 N   0  0
    2.3660   -0.8547   -0.1415 C   0  0
    2.0248   -2.0357   -0.2547 O   0  0
    3.7624   -0.4355   -0.0496 C   0  0
    4.7476   -1.3708   -0.1213 C   0  0
    6.2195   -1.1959   -0.0537 C   0  0
    7.0476   -2.3047   -0.2719 C   0  0
    8.4327   -2.1428   -0.2095 C   0  0
    8.9651   -0.8838    0.0688 C   0  0
    8.0888    0.1823    0.2771 C   0  0
    8.8000    1.9059    0.6569 Br  0  0
    6.7409    0.0323    0.2179 N   0  0
    4.0304    0.9665    0.1081 C   0  0
    4.2113    2.1038    0.2324 N   0  0
   -0.5043   -0.6803   -1.4599 C   0  0
   -1.4586   -1.6991   -1.3685 C   0  0
   -1.9106   -2.3389   -2.5195 C   0  0
   -1.4044   -1.9636   -3.7617 C   0  0
   -0.4511   -0.9532   -3.8639 C   0  0
   -0.0005   -0.3118   -2.7134 C   0  0
   -3.8994    2.6299    0.6347 H   0  0
   -2.6152    3.4150   -0.2783 H   0  0
   -2.4169    3.1178    1.4486 H   0  0
   -2.4557    0.6394    1.0209 H   0  0
   -2.6691    0.9326   -0.6867 H   0  0
   -0.4255    2.0492   -0.7915 H   0  0
   -0.2420    1.8491    0.9274 H   0  0
   -0.2733   -0.6141    0.6743 H   0  0
    1.7995    1.0798    0.0735 H   0  0
    4.4562   -2.4055   -0.2485 H   0  0
    6.6310   -3.2783   -0.4879 H   0  0
    9.0872   -2.9857   -0.3759 H   0  0
   10.0341   -0.7394    0.1211 H   0  0
   -1.8514   -1.9962   -0.4070 H   0  0
   -2.6485   -3.1245   -2.4489 H   0  0
   -1.7531   -2.4625   -4.6539 H   0  0
   -0.0615   -0.6698   -4.8305 H   0  0
    0.7406    0.4700   -2.7960 H   0  0
  1  2  1  0
  1 25  1  0
  1 26  1  0
  1 27  1  0
  2  3  1  0
  2 28  1  0
  2 29  1  0
  3  4  1  0
  3 30  1  0
  3 31  1  0
  4  5  1  0
  4 19  1  0
  4 32  1  0
  5  6  1  0
  5 33  1  0
  6  7  2  0
  6  8  1  0
  8  9  2  0
  8 17  1  0
  9 10  1  0
  9 34  1  0
 10 11  2  0
 10 16  1  0
 11 12  1  0
 11 35  1  0
 12 13  2  0
 12 36  1  0
 13 14  1  0
 13 37  1  0
 14 15  1  0
 14 16  2  0
 17 18  3  0
 19 20  2  0
 19 24  1  0
 20 21  1  0
 20 38  1  0
 21 22  2  0
 21 39  1  0
 22 23  1  0
 22 40  1  0
 23 24  2  0
 23 41  1  0
 24 42  1  0
M  END
> <Mol2_MolInfo_Name>
11520

> <Mol2_MolInfo_Type>
SMALL

> <Mol2_MolInfo_Charge>
USER_CHARGES

> <Mol2_Substructures>
     1 UNK         1 GROUP             0       ****    0 ROOT    

> <Name>
11520

$$$$
11643
  SciTegic06232017503D

 32 32  0  0  0  0            999 V2000
   -4.7951    0.6472    1.2136 C   0  0
   -4.2167   -0.0608   -0.0371 C   0  0  1  0  0  0
   -4.7868   -1.5045   -0.0562 C   0  0
   -4.7277    0.6552   -1.3121 C   0  0
   -2.6676   -0.0132    0.0035 C   0  0
   -1.8807   -1.1769    0.0140 C   0  0
   -0.4913   -1.0972    0.0482 C   0  0
    0.1337    0.1493    0.0730 C   0  0
   -0.6312    1.3149    0.0642 C   0  0
   -2.0195    1.2311    0.0288 C   0  0
    1.9217    0.2601    0.1113 S   0  0
    2.2706    1.4975    0.8185 O   0  0
    2.4372   -1.0317    0.5820 O   0  0
    2.3551    0.4766   -1.6223 C   0  0
    3.0710   -0.4533   -2.2766 C   0  0
    3.4356   -0.3290   -3.6483 C   0  0
    3.7370   -0.2462   -4.7626 N   0  0
   -5.8855    0.6134    1.2254 H   0  0
   -4.5139    1.6997    1.2602 H   0  0
   -4.4471    0.1767    2.1345 H   0  0
   -4.4926   -2.0683    0.8305 H   0  0
   -4.4530   -2.0610   -0.9332 H   0  0
   -5.8779   -1.5042   -0.0808 H   0  0
   -5.8159    0.6206   -1.3836 H   0  0
   -4.3295    0.1916   -2.2158 H   0  0
   -4.4455    1.7082   -1.3355 H   0  0
   -2.3236   -2.1603   -0.0049 H   0  0
    0.0924   -2.0062    0.0533 H   0  0
   -0.1556    2.2847    0.0808 H   0  0
   -2.5907    2.1475    0.0206 H   0  0
    2.0062    1.3840   -2.0930 H   0  0
    3.3978   -1.3459   -1.7638 H   0  0
  1  2  1  0
  1 18  1  0
  1 19  1  0
  1 20  1  0
  2  3  1  0
  2  4  1  0
  2  5  1  0
  3 21  1  0
  3 22  1  0
  3 23  1  0
  4 24  1  0
  4 25  1  0
  4 26  1  0
  5  6  2  0
  5 10  1  0
  6  7  1  0
  6 27  1  0
  7  8  2  0
  7 28  1  0
  8  9  1  0
  8 11  1  0
  9 10  2  0
  9 29  1  0
 10 30  1  0
 11 12  2  0
 11 13  2  0
 11 14  1  0
 14 15  2  0
 14 31  1  0
 15 16  1  0
 15 32  1  0
 16 17  3  0
M  END
> <Mol2_MolInfo_Name>
11643

> <Mol2_MolInfo_Type>
SMALL

> <Mol2_MolInfo_Charge>
USER_CHARGES

> <Mol2_Substructures>
     1 UNK         1 GROUP             0       ****    0 ROOT    

> <Name>
11643

$$$$
11674
  SciTegic06232017503D

 48 51  0  0  0  0            999 V2000
    1.9687   -2.7644    1.0228 C   0  0
    1.1155   -2.9576   -0.2427 C   0  0
   -0.1554   -2.2380   -0.1376 N   0  0
   -1.3761   -2.7701    0.2758 C   0  0
   -2.3506   -1.8969    0.2322 N   0  0
   -1.7727   -0.7413   -0.1987 C   0  0
   -2.3601    0.5076   -0.4241 C   0  0
   -1.6327    1.5583   -0.8647 N   0  0
   -0.3063    1.3851   -1.0775 C   0  0
    0.4117    0.1941   -0.8671 C   0  0
    1.9137    0.1951   -1.1554 C   0  0
    2.6245    1.3665   -0.6427 N   0  0
    3.0196    1.3010    0.7645 C   0  0  1  0  0  0
    3.9993    2.4464    1.1010 C   0  0
    4.5328    2.3648    2.5422 C   0  0
    3.3446    2.3600    3.5189 N   0  3
    2.3588    1.2121    3.2442 C   0  0
    1.8597    1.3094    1.7920 C   0  0
   -0.3810   -0.8945   -0.4322 C   0  0
   -1.6149   -4.1524    0.7395 C   0  0
   -0.7258   -4.8252    1.4305 N   0  0
   -1.3278   -6.0560    1.6752 O   0  0
   -2.6035   -6.1094    1.1217 N   0  0
   -2.7607   -4.9388    0.5601 C   0  0
   -3.9234   -4.6379   -0.0904 N   0  0
    2.9213   -3.2857    0.9274 H   0  0
    1.4679   -3.1587    1.9072 H   0  0
    2.1869   -1.7144    1.2131 H   0  0
    1.6350   -2.6231   -1.1394 H   0  0
    0.9191   -4.0153   -0.4160 H   0  0
   -3.4147    0.6748   -0.2613 H   0  0
    0.2043    2.2689   -1.4319 H   0  0
    2.4111   -0.7005   -0.7960 H   0  0
    2.0232    0.1901   -2.2402 H   0  0
    3.4328    1.5370   -1.2244 H   0  0
    3.5769    0.3742    0.9142 H   0  0
    4.8480    2.4249    0.4156 H   0  0
    3.5114    3.4118    0.9542 H   0  0
    5.0936    1.4491    2.7355 H   0  0
    5.1430    3.2268    2.8134 H   0  0
    3.6887    2.2885    4.4663 H   0  0
    2.9009    0.2865    3.4438 H   0  0
    1.5542    1.3238    3.9716 H   0  0
    1.2622    2.2149    1.6741 H   0  0
    1.1850    0.4725    1.6227 H   0  0
   -4.0725   -3.7334   -0.5148 H   0  0
   -4.6822   -5.3014   -0.1503 H   0  0
    2.8537    3.2403    3.4474 H   0  0
  1  2  1  0
  1 26  1  0
  1 27  1  0
  1 28  1  0
  2  3  1  0
  2 29  1  0
  2 30  1  0
  3  4  1  0
  3 19  1  0
  4  5  2  0
  4 20  1  0
  5  6  1  0
  6  7  2  0
  6 19  1  0
  7  8  1  0
  7 31  1  0
  8  9  2  0
  9 10  1  0
  9 32  1  0
 10 11  1  0
 10 19  2  0
 11 12  1  0
 11 33  1  0
 11 34  1  0
 12 13  1  0
 12 35  1  0
 13 14  1  0
 13 18  1  0
 13 36  1  0
 14 15  1  0
 14 37  1  0
 14 38  1  0
 15 16  1  0
 15 39  1  0
 15 40  1  0
 16 17  1  0
 16 41  1  0
 16 48  1  0
 17 18  1  0
 17 42  1  0
 17 43  1  0
 18 44  1  0
 18 45  1  0
 20 21  2  0
 20 24  1  0
 21 22  1  0
 22 23  1  0
 23 24  2  0
 24 25  1  0
 25 46  1  0
 25 47  1  0
M  CHG  1  16   1
M  END
> <Mol2_MolInfo_Name>
11674

> <Mol2_MolInfo_Type>
SMALL

> <Mol2_MolInfo_Charge>
USER_CHARGES

> <Mol2_Substructures>
     1 UNK         1 GROUP             0       ****    0 ROOT    

> <Name>
11674

$$$$
11683
  SciTegic06232017503D

 38 39  0  0  0  0            999 V2000
   -5.0241    3.9083    1.4351 C   0  0
   -5.2148    3.1355    0.1222 C   0  0
   -4.2781    1.9532    0.0083 C   0  0
   -2.9459    2.2241    0.0028 O   0  0
   -2.2700    1.0479   -0.0973 C   0  0
   -0.8232    1.0926   -0.1192 C   0  0
    0.0002    0.0252   -0.0798 C   0  0
    1.4410    0.1464   -0.1032 C   0  0
    2.0178    1.2313   -0.2039 O   0  0
    2.0526   -1.0539   -0.0008 N   0  0
    3.4259   -1.3673   -0.0029 C   0  0
    3.7514   -2.6780    0.3487 C   0  0
    5.0799   -3.0925    0.3724 C   0  0
    6.1089   -2.2035    0.0359 C   0  0
    5.7792   -0.8899   -0.3253 C   0  0
    4.4507   -0.4731   -0.3474 C   0  0
    7.5308   -2.6778    0.0692 C   0  0
    7.8618   -3.8167    0.4014 O   0  0
    8.6314   -1.6982   -0.3446 C   0  0
   -3.1943    0.0123   -0.1606 C   0  0
   -4.4638    0.5851   -0.0946 C   0  0
   -5.7213    4.7438    1.5007 H   0  0
   -4.0145    4.3127    1.5155 H   0  0
   -5.1930    3.2660    2.3003 H   0  0
   -6.2511    2.8026    0.0537 H   0  0
   -5.0650    3.8138   -0.7184 H   0  0
   -0.4210    2.0959   -0.1655 H   0  0
   -0.4108   -0.9745   -0.0265 H   0  0
    1.4466   -1.8480    0.1435 H   0  0
    2.9774   -3.3852    0.6113 H   0  0
    5.2967   -4.1134    0.6541 H   0  0
    6.5386   -0.1716   -0.5973 H   0  0
    4.2518    0.5429   -0.6476 H   0  0
    8.6358   -0.8319    0.3170 H   0  0
    8.4559   -1.3414   -1.3595 H   0  0
    9.6136   -2.1705   -0.3091 H   0  0
   -2.9721   -1.0412   -0.2456 H   0  0
   -5.4093    0.0638   -0.1173 H   0  0
  1  2  1  0
  1 22  1  0
  1 23  1  0
  1 24  1  0
  2  3  1  0
  2 25  1  0
  2 26  1  0
  3  4  1  0
  3 21  2  0
  4  5  1  0
  5  6  1  0
  5 20  2  0
  6  7  2  0
  6 27  1  0
  7  8  1  0
  7 28  1  0
  8  9  2  0
  8 10  1  0
 10 11  1  0
 10 29  1  0
 11 12  2  0
 11 16  1  0
 12 13  1  0
 12 30  1  0
 13 14  2  0
 13 31  1  0
 14 15  1  0
 14 17  1  0
 15 16  2  0
 15 32  1  0
 16 33  1  0
 17 18  2  0
 17 19  1  0
 19 34  1  0
 19 35  1  0
 19 36  1  0
 20 21  1  0
 20 37  1  0
 21 38  1  0
M  END
> <Mol2_MolInfo_Name>
11683

> <Mol2_MolInfo_Type>
SMALL

> <Mol2_MolInfo_Charge>
USER_CHARGES

> <Mol2_Substructures>
     1 UNK         1 GROUP             0       ****    0 ROOT    

> <Name>
11683

$$$$
11759
  SciTegic06232017503D

 56 56  0  0  0  0            999 V2000
   -6.3686    4.8208   -1.8590 O   0  5
   -7.0655    3.9509   -1.2890 C   0  0
   -8.2023    4.1501   -0.8070 O   0  0
   -6.5221    2.5132   -1.1908 C   0  0
   -4.9773    2.4070   -1.2480 C   0  0
   -4.2462    3.0098   -0.0271 C   0  0
   -2.7085    2.9326   -0.1042 C   0  0
   -2.1389    1.5016   -0.0513 C   0  0
   -0.6001    1.4682   -0.0365 C   0  0
   -0.0344    0.0373    0.0016 C   0  0
    1.5042   -0.0029    0.0057 C   0  0
    2.0643   -1.4359    0.0426 C   0  0
    3.6026   -1.4814    0.0368 C   0  0
    4.1577   -2.9164    0.0708 C   0  0
    5.6957   -2.9679    0.0521 C   0  0
    6.2455   -4.4050    0.0640 C   0  0
    7.7834   -4.4590    0.0298 C   0  0
    8.3187   -5.8833    0.0154 C   0  0
    8.5704   -6.5466    1.2194 C   0  0
    9.0529   -7.8528    1.2054 C   0  0
    9.2821   -8.4918   -0.0118 C   0  0
   10.0054  -10.4542   -0.0322 I   0  0
    9.0327   -7.8352   -1.2156 C   0  0
    8.5500   -6.5292   -1.2022 C   0  0
   -6.8918    2.0401   -0.2795 H   0  0
   -6.9495    1.9494   -2.0207 H   0  0
   -4.7251    1.3490   -1.3207 H   0  0
   -4.6027    2.8572   -2.1690 H   0  0
   -4.5266    4.0580    0.0798 H   0  0
   -4.5899    2.5178    0.8840 H   0  0
   -2.3659    3.4315   -1.0120 H   0  0
   -2.2950    3.5081    0.7252 H   0  0
   -2.5200    0.9936    0.8360 H   0  0
   -2.4967    0.9313   -0.9091 H   0  0
   -0.2189    1.9850   -0.9186 H   0  0
   -0.2341    2.0258    0.8271 H   0  0
   -0.4121   -0.4772    0.8867 H   0  0
   -0.4069   -0.5212   -0.8588 H   0  0
    1.8817    0.5104   -0.8799 H   0  0
    1.8788    0.5549    0.8655 H   0  0
    1.6910   -1.9471    0.9315 H   0  0
    1.6838   -1.9948   -0.8139 H   0  0
    3.9754   -0.9704   -0.8524 H   0  0
    3.9851   -0.9241    0.8935 H   0  0
    3.7896   -3.4252    0.9631 H   0  0
    3.7679   -3.4747   -0.7818 H   0  0
    6.0645   -2.4482   -0.8336 H   0  0
    6.0867   -2.4224    0.9125 H   0  0
    5.8832   -4.9239    0.9532 H   0  0
    5.8462   -4.9498   -0.7932 H   0  0
    8.1591   -3.9278   -0.8464 H   0  0
    8.1996   -3.9292    0.8884 H   0  0
    8.3906   -6.0537    2.1639 H   0  0
    9.2468   -8.3672    2.1351 H   0  0
    9.2110   -8.3359   -2.1560 H   0  0
    8.3544   -6.0230   -2.1363 H   0  0
  1  2  1  0
  2  3  2  0
  2  4  1  0
  4  5  1  0
  4 25  1  0
  4 26  1  0
  5  6  1  0
  5 27  1  0
  5 28  1  0
  6  7  1  0
  6 29  1  0
  6 30  1  0
  7  8  1  0
  7 31  1  0
  7 32  1  0
  8  9  1  0
  8 33  1  0
  8 34  1  0
  9 10  1  0
  9 35  1  0
  9 36  1  0
 10 11  1  0
 10 37  1  0
 10 38  1  0
 11 12  1  0
 11 39  1  0
 11 40  1  0
 12 13  1  0
 12 41  1  0
 12 42  1  0
 13 14  1  0
 13 43  1  0
 13 44  1  0
 14 15  1  0
 14 45  1  0
 14 46  1  0
 15 16  1  0
 15 47  1  0
 15 48  1  0
 16 17  1  0
 16 49  1  0
 16 50  1  0
 17 18  1  0
 17 51  1  0
 17 52  1  0
 18 19  2  0
 18 24  1  0
 19 20  1  0
 19 53  1  0
 20 21  2  0
 20 54  1  0
 21 22  1  0
 21 23  1  0
 23 24  2  0
 23 55  1  0
 24 56  1  0
M  CHG  1   1  -1
M  END
> <Mol2_MolInfo_Name>
11759

> <Mol2_MolInfo_Type>
SMALL

> <Mol2_MolInfo_Charge>
USER_CHARGES

> <Mol2_Substructures>
     1 UNK         1 GROUP             0       ****    0 ROOT    

> <Name>
11759

$$$$
11784
  SciTegic06232017503D

 38 39  0  0  0  0            999 V2000
   -0.2108    4.6234    1.7933 O   0  0
   -0.6633    3.6998    0.8843 C   0  0
   -0.1144    2.4164    0.8917 C   0  0
   -0.5538    1.4521   -0.0207 C   0  0
    0.0523    0.0516   -0.0256 C   0  0
    1.5222    0.0005   -0.0418 N   0  0
    2.3190    0.2851   -1.1184 C   0  0
    1.7838    0.7469   -2.6462 S   0  0
    3.7090    0.1255   -0.7836 C   0  0
    4.7830    0.2856   -1.5964 C   0  0
    6.2052    0.1219   -1.2199 C   0  0
    6.6269   -0.0506    0.1065 C   0  0
    7.9802   -0.2075    0.4130 C   0  0
    8.3533   -0.3715    1.7239 O   0  0
    8.9357   -0.1957   -0.6105 C   0  0
   10.2682   -0.3497   -0.3153 O   0  0
    8.5252   -0.0254   -1.9369 C   0  0
    9.7908   -0.0054   -3.3640 Br  0  0
    7.1709    0.1322   -2.2324 C   0  0
   -1.5507    1.7834   -0.9419 C   0  0
   -2.1042    3.0649   -0.9574 C   0  0
   -3.0789    3.3568   -1.8785 O   0  0
   -1.6616    4.0301   -0.0423 C   0  0
   -2.2018    5.2945   -0.0515 O   0  0
    0.4697    4.2770    2.3745 H   0  0
    0.6568    2.1674    1.6067 H   0  0
   -0.2689   -0.4331    0.8966 H   0  0
   -0.3532   -0.5545   -0.8377 H   0  0
    1.9690   -0.3483    0.7939 H   0  0
    3.8861   -0.1606    0.2440 H   0  0
    4.6273    0.5685   -2.6280 H   0  0
    5.9121   -0.0586    0.9154 H   0  0
    7.6105   -0.3607    2.3318 H   0  0
   10.4278   -0.4522    0.6260 H   0  0
    6.8737    0.2612   -3.2635 H   0  0
   -1.8934    1.0445   -1.6522 H   0  0
   -3.2858    2.6179   -2.4548 H   0  0
   -1.8172    5.8656    0.6176 H   0  0
  1  2  1  0
  1 25  1  0
  2  3  2  0
  2 23  1  0
  3  4  1  0
  3 26  1  0
  4  5  1  0
  4 20  2  0
  5  6  1  0
  5 27  1  0
  5 28  1  0
  6  7  1  0
  6 29  1  0
  7  8  2  0
  7  9  1  0
  9 10  2  0
  9 30  1  0
 10 11  1  0
 10 31  1  0
 11 12  2  0
 11 19  1  0
 12 13  1  0
 12 32  1  0
 13 14  1  0
 13 15  2  0
 14 33  1  0
 15 16  1  0
 15 17  1  0
 16 34  1  0
 17 18  1  0
 17 19  2  0
 19 35  1  0
 20 21  1  0
 20 36  1  0
 21 22  1  0
 21 23  2  0
 22 37  1  0
 23 24  1  0
 24 38  1  0
M  END
> <Mol2_MolInfo_Name>
11784

> <Mol2_MolInfo_Type>
SMALL

> <Mol2_MolInfo_Charge>
USER_CHARGES

> <Mol2_Substructures>
     1 UNK         1 GROUP             0       ****    0 ROOT    

> <Name>
11784

$$$$
11794
  SciTegic06232017503D

 19 19  0  0  0  0            999 V2000
   -4.1487    0.2170    0.0356 N   0  0
   -2.7584    0.1042    0.0110 C   0  0
   -2.0682    1.2720    0.0350 N   0  0
   -0.7122    1.2344    0.0098 C   0  0
   -0.0675    2.4713    0.0336 N   0  0
    0.0004    0.0253   -0.0385 C   0  0
    1.7703   -0.0318   -0.0757 S   0  0
    2.0361   -0.0145   -1.7562 C   0  0
    2.1548    0.0118   -2.9065 N   0  0
   -0.7184   -1.1720   -0.0609 C   0  0
   -2.1145   -1.1430   -0.0373 C   0  0
   -3.0088   -2.6714   -0.0729 S   0  0
   -3.1668   -2.8885   -1.7531 C   0  0
   -3.2537   -2.9755   -2.9033 N   0  0
   -4.7171   -0.6171    0.0125 H   0  0
   -4.5676    1.1352    0.0666 H   0  0
    0.9412    2.5081    0.0102 H   0  0
   -0.6216    3.3148    0.0655 H   0  0
   -0.1962   -2.1177   -0.1000 H   0  0
  1  2  1  0
  1 15  1  0
  1 16  1  0
  2  3  2  0
  2 11  1  0
  3  4  1  0
  4  5  1  0
  4  6  2  0
  5 17  1  0
  5 18  1  0
  6  7  1  0
  6 10  1  0
  7  8  1  0
  8  9  3  0
 10 11  2  0
 10 19  1  0
 11 12  1  0
 12 13  1  0
 13 14  3  0
M  END
> <Mol2_MolInfo_Name>
11794

> <Mol2_MolInfo_Type>
SMALL

> <Mol2_MolInfo_Charge>
USER_CHARGES

> <Mol2_Substructures>
     1 UNK         1 GROUP             0       ****    0 ROOT    

> <Name>
11794

$$$$
11806
  SciTegic06232017503D

 14 15  0  0  0  0            999 V2000
   -6.4251   -2.3632   -3.2835 S   0  0
   -5.2347   -1.9283   -2.0706 C   0  0
   -4.0425   -1.4856   -2.3589 N   0  0
   -3.3184   -1.2229   -1.2385 C   0  0
   -2.0023   -0.7357   -1.2273 C   0  0
   -1.3876   -0.5141    0.0062 C   0  0
   -2.0550   -0.7669    1.2046 C   0  0
   -3.3633   -1.2514    1.2192 C   0  0
   -3.9903   -1.4776   -0.0137 C   0  0
   -5.6058   -2.0740   -0.3664 S   0  0
   -1.4735   -0.5355   -2.1474 H   0  0
   -0.3749   -0.1393    0.0339 H   0  0
   -1.5479   -0.5837    2.1404 H   0  0
   -3.8728   -1.4445    2.1518 H   0  0
  1  2  1  0
  2  3  2  0
  2 10  1  0
  3  4  1  0
  4  5  2  0
  4  9  1  0
  5  6  1  0
  5 11  1  0
  6  7  2  0
  6 12  1  0
  7  8  1  0
  7 13  1  0
  8  9  2  0
  8 14  1  0
  9 10  1  0
M  END
> <Mol2_MolInfo_Name>
11806

> <Mol2_MolInfo_Type>
SMALL

> <Mol2_MolInfo_Charge>
USER_CHARGES

> <Mol2_Substructures>
     1 UNK         1 GROUP             0       ****    0 ROOT    

> <Name>
11806

$$$$
11833
  SciTegic06232017503D

 84 89  0  0  0  0            999 V2000
   -2.1948   -3.4715    0.4025 C   0  0
   -2.8619   -2.2210    0.2660 O   0  0
   -2.1250   -1.0520    0.1501 C   0  0
   -0.7182   -1.0347    0.1546 C   0  0
    0.0044    0.1561    0.0350 C   0  0
   -0.7106    1.3481   -0.0890 C   0  0
   -2.1016    1.3476   -0.0928 C   0  0
   -2.8422    0.1543    0.0265 C   0  0
   -4.2523    0.0936    0.0270 N   0  0
   -4.8689    1.2058   -0.0315 N   0  0
   -6.2835    1.1579   -0.0350 C   0  0
   -7.0156   -0.0341   -0.0305 C   0  0
   -8.3976   -0.0504   -0.0389 C   0  0
   -9.1550    1.1472   -0.0537 C   0  0
  -10.5865    1.1265   -0.0652 C   0  0
  -11.2863    2.3284   -0.0800 C   0  0
  -10.6417    3.5595   -0.0824 C   0  0
   -9.2379    3.6174   -0.0711 C   0  0
   -8.6396    4.8830   -0.0726 N   0  0
   -8.4537    2.4015   -0.0578 C   0  0
   -7.0043    2.3672   -0.0486 C   0  0
   -6.2654    3.5301   -0.0528 O   0  0
  -11.6570    5.0659   -0.1020 S   0  0
  -11.2352    5.7220   -1.3451 O   0  0
  -13.0453    4.5893   -0.1040 O   0  0
  -11.2476    5.7470    1.1319 O   0  5
  -11.5295   -0.4230   -0.0630 S   0  0
  -11.0752   -1.0770   -1.2956 O   0  0
  -11.0943   -1.0626    1.1840 O   0  0
  -12.9381   -0.0108   -0.0762 O   0  5
    1.4953    0.1542    0.0418 C   0  0
    2.2093    1.1259    0.7440 C   0  0
    3.6002    1.1211    0.7525 C   0  0
    4.3419    0.1439    0.0587 C   0  0
    5.7521    0.0898    0.0330 N   0  0
    6.3681    1.0169    0.6511 N   0  0
    7.7827    0.9739    0.6302 C   0  0
    8.5147   -0.0586    0.0347 C   0  0
    9.8968   -0.0738    0.0286 C   0  0
   10.6541    0.9631    0.6282 C   0  0
   12.0856    0.9453    0.6180 C   0  0
   12.7855    1.9878    1.2161 C   0  0
   12.1409    3.0546    1.8304 C   0  0
   10.7371    3.1025    1.8634 C   0  0
   10.1392    4.1972    2.4989 N   0  0
    9.9529    2.0488    1.2563 C   0  0
    8.5036    2.0184    1.2400 C   0  0
    7.7648    3.0233    1.8253 O   0  0
   13.1565    4.3627    2.5772 S   0  0
   14.5447    3.9580    2.3250 O   0  0
   12.7537    4.3166    3.9876 O   0  0
   12.7281    5.5608    1.8458 O   0  5
   13.0291   -0.3981   -0.1536 S   0  0
   12.5863   -0.3404   -1.5516 O   0  0
   12.5829   -1.5771    0.5979 O   0  0
   14.4375   -0.0411    0.0540 O   0  5
    3.6259   -0.8395   -0.6518 C   0  0
    4.3641   -1.7971   -1.3310 O   0  0
    3.6990   -2.8135   -2.0737 C   0  0
    2.2190   -0.8205   -0.6522 C   0  0
   -2.9362   -4.2671    0.4735 H   0  0
   -1.5887   -3.5041    1.3091 H   0  0
   -1.5631   -3.6863   -0.4607 H   0  0
   -0.1639   -1.9547    0.2593 H   0  0
   -0.1895    2.2890   -0.1898 H   0  0
   -2.6012    2.2999   -0.1939 H   0  0
   -6.5124   -0.9899   -0.0224 H   0  0
   -8.8844   -1.0123   -0.0354 H   0  0
  -12.3640    2.3041   -0.0901 H   0  0
   -7.6321    4.9513   -0.0584 H   0  0
   -9.2242    5.7070   -0.0627 H   0  0
   -5.3211    3.3580   -0.0455 H   0  0
    1.6871    1.8924    1.2982 H   0  0
    4.0990    1.8966    1.3150 H   0  0
    8.0112   -0.8863   -0.4432 H   0  0
   10.3839   -0.9068   -0.4520 H   0  0
   13.8633    1.9676    1.2026 H   0  0
    9.1317    4.2561    2.5348 H   0  0
   10.7244    4.9129    2.9066 H   0  0
    6.8205    2.8742    1.7388 H   0  0
    4.4412   -3.4703   -2.5272 H   0  0
    3.0978   -2.3905   -2.8799 H   0  0
    3.0630   -3.4276   -1.4343 H   0  0
    1.6664   -1.5669   -1.2017 H   0  0
  1  2  1  0
  1 61  1  0
  1 62  1  0
  1 63  1  0
  2  3  1  0
  3  4  2  0
  3  8  1  0
  4  5  1  0
  4 64  1  0
  5  6  2  0
  5 31  1  0
  6  7  1  0
  6 65  1  0
  7  8  2  0
  7 66  1  0
  8  9  1  0
  9 10  2  0
 10 11  1  0
 11 12  2  0
 11 21  1  0
 12 13  1  0
 12 67  1  0
 13 14  2  0
 13 68  1  0
 14 15  1  0
 14 20  1  0
 15 16  2  0
 15 27  1  0
 16 17  1  0
 16 69  1  0
 17 18  2  0
 17 23  1  0
 18 19  1  0
 18 20  1  0
 19 70  1  0
 19 71  1  0
 20 21  2  0
 21 22  1  0
 22 72  1  0
 23 24  2  0
 23 25  2  0
 23 26  1  0
 27 28  2  0
 27 29  2  0
 27 30  1  0
 31 32  2  0
 31 60  1  0
 32 33  1  0
 32 73  1  0
 33 34  2  0
 33 74  1  0
 34 35  1  0
 34 57  1  0
 35 36  2  0
 36 37  1  0
 37 38  2  0
 37 47  1  0
 38 39  1  0
 38 75  1  0
 39 40  2  0
 39 76  1  0
 40 41  1  0
 40 46  1  0
 41 42  2  0
 41 53  1  0
 42 43  1  0
 42 77  1  0
 43 44  2  0
 43 49  1  0
 44 45  1  0
 44 46  1  0
 45 78  1  0
 45 79  1  0
 46 47  2  0
 47 48  1  0
 48 80  1  0
 49 50  2  0
 49 51  2  0
 49 52  1  0
 53 54  2  0
 53 55  2  0
 53 56  1  0
 57 58  1  0
 57 60  2  0
 58 59  1  0
 59 81  1  0
 59 82  1  0
 59 83  1  0
 60 84  1  0
M  CHG  4  26  -1  30  -1  52  -1  56  -1
M  END
> <Mol2_MolInfo_Name>
11833

> <Mol2_MolInfo_Type>
SMALL

> <Mol2_MolInfo_Charge>
USER_CHARGES

> <Mol2_Substructures>
     1 UNK         1 GROUP             0       ****    0 ROOT    

> <Name>
11833

$$$$
11864
  SciTegic06232017502D

 42 46  0  0  0  0            999 V2000
   -4.2366    0.2047    0.0000 N   0  0
   -2.8448    0.1273    0.0000 C   0  0
   -2.0869    1.2965    0.0000 C   0  0
   -0.6968    1.2191    0.0000 C   0  0
   -0.0535   -0.0260    0.0000 C   0  0
   -0.8285   -1.1933    0.0000 C   0  0
   -2.2191   -1.1178    0.0000 C   0  0
    1.4453   -0.1062    0.0000 C   0  0
    2.2447    0.9378    0.0000 N   0  0
    3.5138    0.4218    0.0000 C   0  0
    4.7431    1.0917    0.0000 C   0  0
    5.9095    0.3262    0.0000 C   0  0
    5.8805   -1.0773    0.0000 C   0  0
    4.6541   -1.7638    0.0000 C   0  0
    3.4894   -0.9915    0.0000 C   0  0
    2.1478   -1.2935    0.0000 N   0  0
    7.1676   -1.8529    0.0000 C   0  0
    8.3656   -1.3096    0.0000 N   0  0
    9.2421   -2.3627    0.0000 C   0  0
   10.6443   -2.3519    0.0000 C   0  0
   11.3118   -3.5782    0.0000 C   0  0
   10.6119   -4.7882    0.0000 C   0  0
   11.3218   -5.9873    0.0000 N   0  0
    9.2142   -4.8296    0.0000 C   0  0
    8.5521   -3.5987    0.0000 C   0  0
    7.2275   -3.2314    0.0000 N   0  0
   -4.7825   -0.6448    0.0000 H   0  0
   -4.6835    1.1102    0.0000 H   0  0
   -2.5671    2.2646    0.0000 H   0  0
   -0.1246    2.1355    0.0000 H   0  0
   -0.3618   -2.1673    0.0000 H   0  0
   -2.8032   -2.0269    0.0000 H   0  0
    4.7921    2.1708    0.0000 H   0  0
    6.8567    0.8459    0.0000 H   0  0
    4.6059   -2.8427    0.0000 H   0  0
    1.7040   -2.2003    0.0000 H   0  0
   11.1962   -1.4233    0.0000 H   0  0
   12.3926   -3.5817    0.0000 H   0  0
   10.8171   -6.8618    0.0000 H   0  0
   12.3313   -5.9681    0.0000 H   0  0
    8.6746   -5.7657    0.0000 H   0  0
    6.4087   -3.8215    0.0000 H   0  0
  1  2  1  0
  1 27  1  0
  1 28  1  0
  2  3  2  0
  2  7  1  0
  3  4  1  0
  3 29  1  0
  4  5  2  0
  4 30  1  0
  5  6  1  0
  5  8  1  0
  6  7  2  0
  6 31  1  0
  7 32  1  0
  8  9  2  0
  8 16  1  0
  9 10  1  0
 10 11  2  0
 10 15  1  0
 11 12  1  0
 11 33  1  0
 12 13  2  0
 12 34  1  0
 13 14  1  0
 13 17  1  0
 14 15  2  0
 14 35  1  0
 15 16  1  0
 16 36  1  0
 17 18  2  0
 17 26  1  0
 18 19  1  0
 19 20  2  0
 19 25  1  0
 20 21  1  0
 20 37  1  0
 21 22  2  0
 21 38  1  0
 22 23  1  0
 22 24  1  0
 23 39  1  0
 23 40  1  0
 24 25  2  0
 24 41  1  0
 25 26  1  0
 26 42  1  0
M  END
> <Mol2_MolInfo_Name>
11864

> <Mol2_MolInfo_Type>
SMALL

> <Mol2_MolInfo_Charge>
USER_CHARGES

> <Mol2_Substructures>
     1 UNK         1 GROUP             0       ****    0 ROOT    

> <Name>
11864

$$$$
11864
  SciTegic06232017502D

 43 47  0  0  0  0            999 V2000
   -4.2188    0.1259    0.0000 N   0  0
   -2.8258    0.0709    0.0000 C   0  0
   -2.0853    1.2514    0.0000 C   0  0
   -0.6941    1.1954    0.0000 C   0  0
   -0.0318   -0.0397    0.0000 C   0  0
   -0.7895   -1.2183    0.0000 C   0  0
   -2.1808   -1.1643    0.0000 C   0  0
    1.4680   -0.0993    0.0000 C   0  0
    2.2528    0.9554    0.0000 N   0  0
    3.5287    0.4572    0.0000 C   0  0
    4.7485    1.1449    0.0000 C   0  0
    5.9261    0.3966    0.0000 C   0  0
    5.9130   -1.0056    0.0000 C   0  0
    4.6998   -1.7125    0.0000 C   0  0
    3.5240   -0.9568    0.0000 C   0  0
    2.1866   -1.2771    0.0000 N   0  3
    7.2053   -1.7584    0.0000 C   0  0
    8.4728   -1.2228    0.0000 N   0  0
    9.4206   -2.2377    0.0000 C   0  0
   10.8181   -2.2071    0.0000 C   0  0
   11.4718   -3.4422    0.0000 C   0  0
   10.7691   -4.6507    0.0000 C   0  0
   11.4752   -5.8522    0.0000 N   0  0
    9.3713   -4.6844    0.0000 C   0  0
    8.7123   -3.4514    0.0000 C   0  0
    7.3627   -3.1252    0.0000 N   0  0
   -4.7507   -0.7325    0.0000 H   0  0
   -4.6810    1.0239    0.0000 H   0  0
   -2.5800    2.2122    0.0000 H   0  0
   -0.1366    2.1208    0.0000 H   0  0
   -0.3083   -2.1853    0.0000 H   0  0
   -2.7498   -2.0829    0.0000 H   0  0
    4.7808    2.2246    0.0000 H   0  0
    6.8659    0.9295    0.0000 H   0  0
    4.6700   -2.7924    0.0000 H   0  0
    1.7544   -2.1895    0.0000 H   0  0
   11.3734   -1.2805    0.0000 H   0  0
   12.5528   -3.4532    0.0000 H   0  0
   10.9698   -6.7265    0.0000 H   0  0
   12.4850   -5.8359    0.0000 H   0  0
    8.8283   -5.6185    0.0000 H   0  0
    6.5772   -3.7591    0.0000 H   0  0
    8.6380   -0.2267    0.0000 H   0  0
  1  2  1  0
  1 27  1  0
  1 28  1  0
  2  3  2  0
  2  7  1  0
  3  4  1  0
  3 29  1  0
  4  5  2  0
  4 30  1  0
  5  6  1  0
  5  8  1  0
  6  7  2  0
  6 31  1  0
  7 32  1  0
  8  9  1  0
  8 16  2  0
  9 10  1  0
 10 11  2  0
 10 15  1  0
 11 12  1  0
 11 33  1  0
 12 13  2  0
 12 34  1  0
 13 14  1  0
 13 17  1  0
 14 15  2  0
 14 35  1  0
 15 16  1  0
 16 36  1  0
 17 18  4  0
 17 26  4  0
 18 19  4  0
 18 43  1  0
 19 20  4  0
 19 25  4  0
 20 21  4  0
 20 37  1  0
 21 22  4  0
 21 38  1  0
 22 23  1  0
 22 24  4  0
 23 39  1  0
 23 40  1  0
 24 25  4  0
 24 41  1  0
 25 26  4  0
 26 42  1  0
M  CHG  1  16   1
M  END
> <Mol2_MolInfo_Name>
11864

> <Mol2_MolInfo_Type>
SMALL

> <Mol2_MolInfo_Charge>
USER_CHARGES

> <Mol2_Substructures>
     1 UNK         1 GROUP             0       ****    0 ROOT    

> <Name>
11864

$$$$
11864
  SciTegic06232017502D

 43 47  0  0  0  0            999 V2000
   -4.1805    0.1306    0.0000 N   0  0
   -2.7878    0.0717    0.0000 C   0  0
   -2.0447    1.2502    0.0000 C   0  0
   -0.6540    1.1908    0.0000 C   0  0
    0.0053   -0.0456    0.0000 C   0  0
   -0.7547   -1.2228    0.0000 C   0  0
   -2.1459   -1.1653    0.0000 C   0  0
    1.5046   -0.1058    0.0000 C   0  0
    2.2218   -1.2841    0.0000 N   0  3
    3.5591   -0.9648    0.0000 C   0  0
    4.7334   -1.7191    0.0000 C   0  0
    5.9336   -1.0043    0.0000 C   0  0
    5.9780    0.3973    0.0000 C   0  0
    4.7875    1.1378    0.0000 C   0  0
    3.5664    0.4490    0.0000 C   0  0
    2.2908    0.9483    0.0000 N   0  0
    7.2954    1.1043    0.0000 C   0  0
    8.5427    0.5236    0.0000 N   0  0
    9.5263    1.5040    0.0000 C   0  0
   10.9219    1.4240    0.0000 C   0  0
   11.6190    2.6352    0.0000 C   0  0
   10.9594    3.8678    0.0000 C   0  0
   11.7070    5.0441    0.0000 N   0  0
    9.5638    3.9507    0.0000 C   0  0
    8.8616    2.7419    0.0000 C   0  0
    7.5011    2.4645    0.0000 N   0  0
   -4.7147   -0.7264    0.0000 H   0  0
   -4.6397    1.0300    0.0000 H   0  0
   -2.5364    2.2123    0.0000 H   0  0
   -0.0938    2.1145    0.0000 H   0  0
   -0.2758   -2.1909    0.0000 H   0  0
   -2.7173   -2.0826    0.0000 H   0  0
    4.7233   -2.7993    0.0000 H   0  0
    6.8544   -1.5691    0.0000 H   0  0
    4.8010    2.2181    0.0000 H   0  0
   11.4443    0.4783    0.0000 H   0  0
   12.6996    2.6079    0.0000 H   0  0
   11.2319    5.9352    0.0000 H   0  0
   12.7156    4.9939    0.0000 H   0  0
    9.0544    4.9037    0.0000 H   0  0
    6.7387    3.1265    0.0000 H   0  0
    1.7892   -2.1964    0.0000 H   0  0
    8.6718   -0.4778    0.0000 H   0  0
  1  2  1  0
  1 27  1  0
  1 28  1  0
  2  3  2  0
  2  7  1  0
  3  4  1  0
  3 29  1  0
  4  5  2  0
  4 30  1  0
  5  6  1  0
  5  8  1  0
  6  7  2  0
  6 31  1  0
  7 32  1  0
  8  9  2  0
  8 16  1  0
  9 10  1  0
  9 42  1  0
 10 11  2  0
 10 15  1  0
 11 12  1  0
 11 33  1  0
 12 13  2  0
 12 34  1  0
 13 14  1  0
 13 17  1  0
 14 15  2  0
 14 35  1  0
 15 16  1  0
 17 18  4  0
 17 26  4  0
 18 19  4  0
 18 43  1  0
 19 20  4  0
 19 25  4  0
 20 21  4  0
 20 36  1  0
 21 22  4  0
 21 37  1  0
 22 23  1  0
 22 24  4  0
 23 38  1  0
 23 39  1  0
 24 25  4  0
 24 40  1  0
 25 26  4  0
 26 41  1  0
M  CHG  1   9   1
M  END
> <Mol2_MolInfo_Name>
11864

> <Mol2_MolInfo_Type>
SMALL

> <Mol2_MolInfo_Charge>
USER_CHARGES

> <Mol2_Substructures>
     1 UNK         1 GROUP             0       ****    0 ROOT    

> <Name>
11864

$$$$
11864
  SciTegic06232017502D

 42 46  0  0  0  0            999 V2000
   -4.2082    0.0524    0.0000 N   0  0
   -2.8144    0.0152    0.0000 C   0  0
   -2.0892    1.2051    0.0000 C   0  0
   -0.6973    1.1668    0.0000 C   0  0
   -0.0190   -0.0597    0.0000 C   0  0
   -0.7614   -1.2482    0.0000 C   0  0
   -2.1537   -1.2117    0.0000 C   0  0
    1.4819   -0.0982    0.0000 C   0  0
    2.2168   -1.2658    0.0000 N   0  0
    3.5493   -0.9264    0.0000 C   0  0
    4.7346   -1.6628    0.0000 C   0  0
    5.9238   -0.9297    0.0000 C   0  0
    5.9518    0.4739    0.0000 C   0  0
    4.7469    1.1934    0.0000 C   0  0
    3.5358    0.4869    0.0000 C   0  0
    2.2526    0.9674    0.0000 N   0  0
    7.2645    1.2042    0.0000 C   0  0
    8.4422    0.6186    0.0000 N   0  0
    9.3556    1.6401    0.0000 C   0  0
   10.7565    1.5794    0.0000 C   0  0
   11.4671    2.7812    0.0000 C   0  0
   10.8110    4.0154    0.0000 C   0  0
   11.5649    5.1874    0.0000 N   0  0
    9.4156    4.1066    0.0000 C   0  0
    8.7100    2.8999    0.0000 C   0  0
    7.3731    2.5798    0.0000 N   0  0
   -4.7290   -0.8128    0.0000 H   0  0
   -4.6817    0.9444    0.0000 H   0  0
   -2.5963    2.1595    0.0000 H   0  0
   -0.1505    2.0986    0.0000 H   0  0
   -0.2681   -2.2090    0.0000 H   0  0
   -2.7120   -2.1370    0.0000 H   0  0
    4.7414   -2.7428    0.0000 H   0  0
    6.8526   -1.4819    0.0000 H   0  0
    4.7414    2.2733    0.0000 H   0  0
   11.2753    0.6320    0.0000 H   0  0
   12.5473    2.7463    0.0000 H   0  0
   11.0947    6.0809    0.0000 H   0  0
   12.5729    5.1291    0.0000 H   0  0
    8.9089    5.0609    0.0000 H   0  0
    6.5759    3.1989    0.0000 H   0  0
    1.7988   -2.1847    0.0000 H   0  0
  1  2  1  0
  1 27  1  0
  1 28  1  0
  2  3  2  0
  2  7  1  0
  3  4  1  0
  3 29  1  0
  4  5  2  0
  4 30  1  0
  5  6  1  0
  5  8  1  0
  6  7  2  0
  6 31  1  0
  7 32  1  0
  8  9  1  0
  8 16  2  0
  9 10  1  0
  9 42  1  0
 10 11  2  0
 10 15  1  0
 11 12  1  0
 11 33  1  0
 12 13  2  0
 12 34  1  0
 13 14  1  0
 13 17  1  0
 14 15  2  0
 14 35  1  0
 15 16  1  0
 17 18  2  0
 17 26  1  0
 18 19  1  0
 19 20  2  0
 19 25  1  0
 20 21  1  0
 20 36  1  0
 21 22  2  0
 21 37  1  0
 22 23  1  0
 22 24  1  0
 23 38  1  0
 23 39  1  0
 24 25  2  0
 24 40  1  0
 25 26  1  0
 26 41  1  0
M  END
> <Mol2_MolInfo_Name>
11864

> <Mol2_MolInfo_Type>
SMALL

> <Mol2_MolInfo_Charge>
USER_CHARGES

> <Mol2_Substructures>
     1 UNK         1 GROUP             0       ****    0 ROOT    

> <Name>
11864

$$$$
11911
  SciTegic06232017503D

 75 75  0  0  0  0            999 V2000
    0.4146    3.6633   -2.9256 C   0  0
   -0.5465    2.6873   -3.6408 C   0  0  2  0  0  0
   -0.4707    2.8087   -5.1785 C   0  0
   -2.0100    2.8123   -3.1453 C   0  0
   -2.2463    2.6075   -1.6188 C   0  0  2  0  0  0
   -1.5751    1.4001   -1.1261 N   0  0
   -0.5611    1.3819   -0.2448 C   0  0
   -0.0890    2.3815    0.2981 O   0  0
    0.0056   -0.0079    0.0945 C   0  0  2  0  0  0
   -0.4753   -0.5185    1.4743 C   0  0
   -2.0074   -0.6529    1.6555 C   0  0  2  0  0  0
   -2.3558   -1.0475    3.1067 C   0  0
   -2.6447   -1.6088    0.6239 C   0  0
    1.4684    0.0034    0.0930 N   0  0
    2.2400    0.1135   -1.0027 C   0  0
    1.8039    0.1951   -2.1528 O   0  0
    3.7654    0.1599   -0.7545 C   0  0  2  0  0  0
    4.3397    1.5429   -1.1691 C   0  0
    5.8265    1.7754   -0.8043 C   0  0  2  0  0  0
    6.0839    1.6832    0.7149 C   0  0
    6.3424    3.1027   -1.4010 C   0  0
    4.4719   -0.8930   -1.5030 N   0  0
    4.4160   -2.2237   -1.1023 C   0  0
    3.8338   -2.6642   -0.1073 O   0  0
    5.1084   -2.9712   -1.9823 O   0  0
    5.2210   -4.3782   -1.8110 C   0  0
    6.0930   -4.9517   -2.9119 C   0  0
    7.4790   -5.0027   -2.7450 C   0  0
    8.2800   -5.5255   -3.7571 C   0  0
    7.6911   -5.9943   -4.9301 C   0  0
    6.3089   -5.9458   -5.1005 C   0  0
    5.5072   -5.4230   -4.0891 C   0  0
   -3.7095    2.3651   -1.3051 C   0  0
   -4.6126    3.0482   -1.7863 O   0  0
    1.0214    4.2456   -3.6184 H   0  0
    1.1073    3.1182   -2.2834 H   0  0
   -0.1168    4.3764   -2.2960 H   0  0
   -0.2112    1.6767   -3.4055 H   0  0
   -1.4600    2.8315   -5.6364 H   0  0
    0.0601    1.9580   -5.6070 H   0  0
    0.0455    3.7104   -5.5075 H   0  0
   -2.3596    3.8107   -3.4146 H   0  0
   -2.6298    2.1171   -3.7161 H   0  0
   -1.9410    3.5050   -1.0771 H   0  0
   -1.8893    0.5289   -1.5287 H   0  0
   -0.3142   -0.7138   -0.6743 H   0  0
   -0.0163   -1.4891    1.6701 H   0  0
   -0.0884    0.1514    2.2444 H   0  0
   -2.4506    0.3314    1.5008 H   0  0
   -2.7711   -2.0526    3.1816 H   0  0
   -3.0898   -0.3604    3.5287 H   0  0
   -1.4822   -1.0208    3.7588 H   0  0
   -1.9007   -2.2394    0.1367 H   0  0
   -3.1564   -1.0452   -0.1569 H   0  0
   -3.3844   -2.2749    1.0677 H   0  0
    1.9081   -0.0541    1.0001 H   0  0
    3.9539    0.0267    0.3135 H   0  0
    4.2110    1.6769   -2.2455 H   0  0
    3.7506    2.3381   -0.7070 H   0  0
    6.4088    0.9840   -1.2780 H   0  0
    5.1652    1.7924    1.2916 H   0  0
    6.7772    2.4451    1.0714 H   0  0
    6.5174    0.7161    0.9717 H   0  0
    6.5754    3.8444   -0.6368 H   0  0
    5.6138    3.5618   -2.0701 H   0  0
    7.2507    2.9385   -1.9815 H   0  0
    4.9009   -0.6571   -2.3859 H   0  0
    5.6585   -4.6150   -0.8394 H   0  0
    4.2360   -4.8480   -1.8378 H   0  0
    7.9348   -4.6371   -1.8360 H   0  0
    9.3522   -5.5666   -3.6338 H   0  0
    8.3126   -6.3985   -5.7156 H   0  0
    5.8615   -6.3109   -6.0133 H   0  0
    4.4356   -5.3833   -4.2213 H   0  0
   -3.9339    1.5542   -0.6096 H   0  0
  1  2  1  0
  1 35  1  0
  1 36  1  0
  1 37  1  0
  2  3  1  0
  2  4  1  0
  2 38  1  0
  3 39  1  0
  3 40  1  0
  3 41  1  0
  4  5  1  0
  4 42  1  0
  4 43  1  0
  5  6  1  0
  5 33  1  0
  5 44  1  0
  6  7  1  0
  6 45  1  0
  7  8  2  0
  7  9  1  0
  9 10  1  0
  9 14  1  0
  9 46  1  0
 10 11  1  0
 10 47  1  0
 10 48  1  0
 11 12  1  0
 11 13  1  0
 11 49  1  0
 12 50  1  0
 12 51  1  0
 12 52  1  0
 13 53  1  0
 13 54  1  0
 13 55  1  0
 14 15  1  0
 14 56  1  0
 15 16  2  0
 15 17  1  0
 17 18  1  0
 17 22  1  0
 17 57  1  0
 18 19  1  0
 18 58  1  0
 18 59  1  0
 19 20  1  0
 19 21  1  0
 19 60  1  0
 20 61  1  0
 20 62  1  0
 20 63  1  0
 21 64  1  0
 21 65  1  0
 21 66  1  0
 22 23  1  0
 22 67  1  0
 23 24  2  0
 23 25  1  0
 25 26  1  0
 26 27  1  0
 26 68  1  0
 26 69  1  0
 27 28  2  0
 27 32  1  0
 28 29  1  0
 28 70  1  0
 29 30  2  0
 29 71  1  0
 30 31  1  0
 30 72  1  0
 31 32  2  0
 31 73  1  0
 32 74  1  0
 33 34  2  0
 33 75  1  0
M  END
> <Mol2_MolInfo_Name>
11911

> <Mol2_MolInfo_Type>
SMALL

> <Mol2_MolInfo_Charge>
USER_CHARGES

> <Mol2_Substructures>
     1 UNK         1 GROUP             0       ****    0 ROOT    

> <Name>
11911

$$$$
11917
  SciTegic06232017503D

 62 64  0  0  0  0            999 V2000
   -6.3741    0.9501    1.2342 C   0  0
   -4.9212    1.1140    0.7557 C   0  0
   -4.2293   -0.1325    0.3870 N   0  0
   -4.9464   -1.0999   -0.4601 C   0  0
   -5.0602   -0.6602   -1.9282 C   0  0
   -2.8070   -0.1194    0.3050 C   0  0
   -2.0840   -1.3221    0.2613 C   0  0
   -0.6942   -1.3240    0.1857 C   0  0
    0.0184   -0.1224    0.1490 C   0  0
   -0.6898    1.0811    0.2093 C   0  0
   -2.0793    1.0827    0.2870 C   0  0
    1.5081   -0.1144    0.0798 C   0  0
    2.2283   -0.8035   -0.8537 C   0  0
    1.6354   -1.5571   -1.9596 C   0  0
    2.3674   -2.2317   -2.8800 C   0  0
    3.7789   -2.2610   -2.8504 C   0  0
    4.5018   -2.9386   -3.7816 N   0  0
    3.8662   -3.7338   -4.8920 C   0  0
    3.4956   -2.8336   -6.0832 C   0  0
    6.0080   -2.9556   -3.7941 C   0  0
    6.5638   -4.0177   -2.8299 C   0  0
    4.3995   -1.5472   -1.8020 C   0  0
    3.6907   -0.8660   -0.8688 C   0  0
    2.1508    0.7180    1.1327 C   0  0
    2.9609    1.8061    0.7842 C   0  0
    3.5486    2.5899    1.7736 C   0  0
    3.3229    2.2907    3.1149 C   0  0
    2.5129    1.2166    3.4750 C   0  0
    1.9256    0.4335    2.4850 C   0  0
   -6.7675    1.9034    1.5876 H   0  0
   -6.4449    0.2397    2.0585 H   0  0
   -7.0317    0.6146    0.4320 H   0  0
   -4.8951    1.7978   -0.0939 H   0  0
   -4.3666    1.6035    1.5578 H   0  0
   -4.4746   -2.0796   -0.4345 H   0  0
   -5.9394   -1.2816   -0.0502 H   0  0
   -5.5971   -1.4074   -2.5128 H   0  0
   -4.0776   -0.5310   -2.3831 H   0  0
   -5.6033    0.2806   -2.0223 H   0  0
   -2.5792   -2.2790    0.3130 H   0  0
   -0.1713   -2.2695    0.1692 H   0  0
   -0.1650    2.0257    0.1890 H   0  0
   -2.5737    2.0417    0.3145 H   0  0
    0.5641   -1.5706   -2.0893 H   0  0
    1.8290   -2.7388   -3.6653 H   0  0
    4.5906   -4.4886   -5.2012 H   0  0
    3.0141   -4.2800   -4.4863 H   0  0
    3.0674   -3.4250   -6.8926 H   0  0
    4.3727   -2.3207   -6.4793 H   0  0
    2.7627   -2.0751   -5.8075 H   0  0
    6.3184   -3.1758   -4.8165 H   0  0
    6.3690   -1.9498   -3.5778 H   0  0
    7.6529   -4.0393   -2.8702 H   0  0
    6.2052   -5.0142   -3.0902 H   0  0
    6.2777   -3.8196   -1.7967 H   0  0
    5.4741   -1.5417   -1.7082 H   0  0
    4.2565   -0.3714   -0.0933 H   0  0
    3.1347    2.0477   -0.2548 H   0  0
    4.1750    3.4271    1.5024 H   0  0
    3.7781    2.8985    3.8831 H   0  0
    2.3404    0.9925    4.5174 H   0  0
    1.2977   -0.3981    2.7716 H   0  0
  1  2  1  0
  1 30  1  0
  1 31  1  0
  1 32  1  0
  2  3  1  0
  2 33  1  0
  2 34  1  0
  3  4  1  0
  3  6  1  0
  4  5  1  0
  4 35  1  0
  4 36  1  0
  5 37  1  0
  5 38  1  0
  5 39  1  0
  6  7  2  0
  6 11  1  0
  7  8  1  0
  7 40  1  0
  8  9  2  0
  8 41  1  0
  9 10  1  0
  9 12  1  0
 10 11  2  0
 10 42  1  0
 11 43  1  0
 12 13  2  0
 12 24  1  0
 13 14  1  0
 13 23  1  0
 14 15  2  0
 14 44  1  0
 15 16  1  0
 15 45  1  0
 16 17  2  0
 16 22  1  0
 17 18  1  0
 17 20  1  0
 18 19  1  0
 18 46  1  0
 18 47  1  0
 19 48  1  0
 19 49  1  0
 19 50  1  0
 20 21  1  0
 20 51  1  0
 20 52  1  0
 21 53  1  0
 21 54  1  0
 21 55  1  0
 22 23  2  0
 22 56  1  0
 23 57  1  0
 24 25  2  0
 24 29  1  0
 25 26  1  0
 25 58  1  0
 26 27  2  0
 26 59  1  0
 27 28  1  0
 27 60  1  0
 28 29  2  0
 28 61  1  0
 29 62  1  0
M  END
> <Mol2_MolInfo_Name>
11917

> <Mol2_MolInfo_Type>
SMALL

> <Mol2_MolInfo_Charge>
USER_CHARGES

> <Mol2_Substructures>
     1 UNK         1 GROUP             0       ****    0 ROOT    

> <Name>
11917

$$$$
11917
  SciTegic06232017503D

 63 65  0  0  0  0            999 V2000
   -4.4745   -0.1461    2.4892 C   0  0
   -4.9215   -0.7985    1.1693 C   0  0
   -4.2569   -0.1082   -0.0492 N   0  0  2  0  0  0
   -4.8391   -0.5979   -1.3981 C   0  0
   -6.2802   -0.1036   -1.6065 C   0  0
   -2.7691   -0.1225   -0.0186 C   0  0
   -2.0785   -1.3274   -0.1473 C   0  0
   -0.6872   -1.3028   -0.1178 C   0  0
   -0.0001   -0.0914    0.0469 C   0  0
   -0.7226    1.1042    0.1683 C   0  0
   -2.1141    1.0955    0.1367 C   0  0
    1.4879   -0.0637    0.0605 C   0  0
    2.2440   -0.7820    0.9408 C   0  0
    1.6889   -1.5964    2.0225 C   0  0
    2.4530   -2.3079    2.8877 C   0  0
    3.8634   -2.3259    2.8126 C   0  0
    4.6191   -3.0493    3.6818 N   0  0
    4.0254   -3.8629    4.8022 C   0  0
    3.5537   -5.2410    4.3061 C   0  0
    6.1229   -3.1048    3.6071 C   0  0
    6.7623   -1.8905    4.3030 C   0  0
    4.4473   -1.5509    1.7861 C   0  0
    3.7062   -0.8275    0.9114 C   0  0
    2.0775    0.8211   -0.9797 C   0  0
    2.8971    1.8972   -0.6166 C   0  0
    3.4343    2.7320   -1.5927 C   0  0
    3.1493    2.4956   -2.9352 C   0  0
    2.3298    1.4337   -3.3096 C   0  0
    1.7923    0.5999   -2.3327 C   0  0
   -4.9949   -0.5963    3.3349 H   0  0
   -4.6952    0.9219    2.4988 H   0  0
   -3.4054   -0.2702    2.6645 H   0  0
   -4.6523   -1.8544    1.1119 H   0  0
   -5.9975   -0.6916    1.0415 H   0  0
   -4.1851   -0.1738   -2.1624 H   0  0
   -4.7439   -1.6849   -1.4126 H   0  0
   -6.6160   -0.3342   -2.6179 H   0  0
   -6.3546    0.9767   -1.4770 H   0  0
   -6.9859   -0.5770   -0.9247 H   0  0
   -2.6015   -2.2646   -0.2720 H   0  0
   -0.1412   -2.2290   -0.2282 H   0  0
   -0.2046    2.0452    0.2882 H   0  0
   -2.6653    2.0202    0.2316 H   0  0
    0.6200   -1.6343    2.1712 H   0  0
    1.9410   -2.8729    3.6507 H   0  0
    4.8014   -3.9813    5.5598 H   0  0
    3.2310   -3.2815    5.2710 H   0  0
    3.1578   -5.8316    5.1324 H   0  0
    4.3754   -5.8053    3.8639 H   0  0
    2.7661   -5.1565    3.5572 H   0  0
    6.4362   -4.0286    4.0959 H   0  0
    6.4157   -3.2022    2.5612 H   0  0
    7.8498   -1.9530    4.2626 H   0  0
    6.4747   -1.8400    5.3537 H   0  0
    6.4706   -0.9513    3.8326 H   0  0
    5.5195   -1.5129    1.6740 H   0  0
    4.2451   -0.2771    0.1546 H   0  0
    3.1173    2.0904    0.4236 H   0  0
    4.0676    3.5604   -1.3106 H   0  0
    3.5655    3.1431   -3.6930 H   0  0
    2.1117    1.2590   -4.3530 H   0  0
    1.1564   -0.2215   -2.6307 H   0  0
   -4.5541    0.8557    0.0093 H   0  0
  1  2  1  0
  1 30  1  0
  1 31  1  0
  1 32  1  0
  2  3  1  0
  2 33  1  0
  2 34  1  0
  3  4  1  0
  3  6  1  0
  3 63  1  0
  4  5  1  0
  4 35  1  0
  4 36  1  0
  5 37  1  0
  5 38  1  0
  5 39  1  0
  6  7  2  0
  6 11  1  0
  7  8  1  0
  7 40  1  0
  8  9  2  0
  8 41  1  0
  9 10  1  0
  9 12  1  0
 10 11  2  0
 10 42  1  0
 11 43  1  0
 12 13  2  0
 12 24  1  0
 13 14  1  0
 13 23  1  0
 14 15  2  0
 14 44  1  0
 15 16  1  0
 15 45  1  0
 16 17  2  0
 16 22  1  0
 17 18  1  0
 17 20  1  0
 18 19  1  0
 18 46  1  0
 18 47  1  0
 19 48  1  0
 19 49  1  0
 19 50  1  0
 20 21  1  0
 20 51  1  0
 20 52  1  0
 21 53  1  0
 21 54  1  0
 21 55  1  0
 22 23  2  0
 22 56  1  0
 23 57  1  0
 24 25  2  0
 24 29  1  0
 25 26  1  0
 25 58  1  0
 26 27  2  0
 26 59  1  0
 27 28  1  0
 27 60  1  0
 28 29  2  0
 28 61  1  0
 29 62  1  0
M  END
> <Mol2_MolInfo_Name>
11917

> <Mol2_MolInfo_Type>
SMALL

> <Mol2_MolInfo_Charge>
USER_CHARGES

> <Mol2_Substructures>
     1 UNK         1 GROUP             0       ****    0 ROOT    

> <Name>
11917

$$$$
11988
  SciTegic06232017503D

 32 34  0  0  0  0            999 V2000
   -0.7845    1.1386    0.0000 C   0  0
   -0.0060   -0.0539    0.0000 O   0  0
    1.3795    0.0263    0.0000 C   0  0
    2.0692    1.2378    0.0000 C   0  0
    3.4523    1.2596    0.0000 C   0  0
    4.2154    0.0795    0.0000 C   0  0
    5.5992    0.1670    0.0000 O   0  0
    6.2719    1.4236    0.0000 C   0  0
    3.5416   -1.1853    0.0000 C   0  0
    4.2430   -2.5458    0.0000 C   0  0
    5.9230   -2.7371    0.0000 S   0  0
    3.3649   -3.7779    0.0000 C   0  0
    3.8778   -5.0983    0.0000 C   0  0
    3.0306   -6.2057    0.0000 C   0  0
    1.6511   -6.0311    0.0000 C   0  0
    1.1182   -4.7465    0.0000 C   0  0
    1.9636   -3.6349    0.0000 C   0  0
    1.3789   -2.3648    0.0000 N   0  0
    2.1182   -1.1671    0.0000 C   0  0
   -1.8425    0.8772    0.0000 H   0  0
   -0.5942    1.7409   -0.8896 H   0  0
   -0.5942    1.7409    0.8896 H   0  0
    1.5485    2.1831    0.0000 H   0  0
    3.9155    2.2337    0.0000 H   0  0
    7.3478    1.2500    0.0000 H   0  0
    6.0342    2.0068    0.8908 H   0  0
    6.0342    2.0068   -0.8908 H   0  0
    4.9354   -5.3125    0.0000 H   0  0
    3.4473   -7.2021    0.0000 H   0  0
    0.9954   -6.8894    0.0000 H   0  0
    0.0450   -4.6191    0.0000 H   0  0
    0.3713   -2.3001    0.0000 H   0  0
  1  2  1  0
  1 20  1  0
  1 21  1  0
  1 22  1  0
  2  3  1  0
  3  4  2  0
  3 19  1  0
  4  5  1  0
  4 23  1  0
  5  6  2  0
  5 24  1  0
  6  7  1  0
  6  9  1  0
  7  8  1  0
  8 25  1  0
  8 26  1  0
  8 27  1  0
  9 10  1  0
  9 19  2  0
 10 11  2  0
 10 12  1  0
 12 13  2  0
 12 17  1  0
 13 14  1  0
 13 28  1  0
 14 15  2  0
 14 29  1  0
 15 16  1  0
 15 30  1  0
 16 17  2  0
 16 31  1  0
 17 18  1  0
 18 19  1  0
 18 32  1  0
M  END
> <Mol2_MolInfo_Name>
11988

> <Mol2_MolInfo_Type>
SMALL

> <Mol2_MolInfo_Charge>
USER_CHARGES

> <Mol2_Substructures>
     1 UNK         1 GROUP             0       ****    0 ROOT    

> <Name>
11988

$$$$
11993
  SciTegic06232017503D

 24 23  0  0  0  0            999 V2000
   -3.1286    1.7164    1.6299 C   0  0
   -2.5927    0.8882    0.1040 S   0  0
   -0.8046    1.0091    0.1580 C   0  0
    0.0116   -0.0482   -0.0995 C   0  0
   -0.6056   -1.3036   -0.4133 C   0  0
   -1.1188   -2.3087   -0.6744 N   0  0
    1.4885    0.0486   -0.0989 C   0  0
    2.3048   -1.0087    0.1588 C   0  0
    1.9260   -2.2891    0.4815 N   0  0
    4.0930   -0.8878    0.1047 S   0  0
    4.6283   -1.7165    1.6306 C   0  0
    2.1062    1.3034   -0.4143 C   0  0
    2.6206    2.3075   -0.6768 N   0  0
   -0.4263    2.2894    0.4809 N   0  0
   -4.1984    1.5688    1.7771 H   0  0
   -2.9360    2.7880    1.5789 H   0  0
   -2.6032    1.3056    2.4921 H   0  0
    0.9507   -2.5475    0.5347 H   0  0
    2.6127   -3.0133    0.6342 H   0  0
    5.6982   -1.5691    1.7785 H   0  0
    4.4354   -2.7880    1.5791 H   0  0
    4.1025   -1.3058    2.4928 H   0  0
    0.5488    2.5476    0.5359 H   0  0
   -1.1130    3.0136    0.6349 H   0  0
  1  2  1  0
  1 15  1  0
  1 16  1  0
  1 17  1  0
  2  3  1  0
  3  4  2  0
  3 14  1  0
  4  5  1  0
  4  7  1  0
  5  6  3  0
  7  8  2  0
  7 12  1  0
  8  9  1  0
  8 10  1  0
  9 18  1  0
  9 19  1  0
 10 11  1  0
 11 20  1  0
 11 21  1  0
 11 22  1  0
 12 13  3  0
 14 23  1  0
 14 24  1  0
M  END
> <Mol2_MolInfo_Name>
11993

> <Mol2_MolInfo_Type>
SMALL

> <Mol2_MolInfo_Charge>
USER_CHARGES

> <Mol2_Substructures>
     1 UNK         1 GROUP             0       ****    0 ROOT    

> <Name>
11993

$$$$
12010
  SciTegic06232017503D

 33 35  0  0  0  0            999 V2000
   -1.8245    3.0335   -1.8123 C   0  0
   -2.4362    3.0592   -0.3990 C   0  0
   -2.1214    1.7711    0.3881 C   0  0
   -0.6047    1.4757    0.4502 C   0  0  2  0  0  0
   -0.0125    1.4360   -0.9825 C   0  0
   -0.3168    2.7215   -1.7775 C   0  0
   -0.3196    0.2970    1.2569 N   0  0
    1.4055   -0.0190    1.6024 S   0  0
    1.5909   -1.6389    0.9569 C   0  0
    1.7558   -2.6933    1.7058 N   0  0
    1.8625   -3.8266    0.9633 C   0  0
    2.0478   -5.1166    1.4851 C   0  0
    2.1395   -6.1862    0.5929 C   0  0
    2.0508   -5.9906   -0.7853 C   0  0
    1.8665   -4.7184   -1.3275 C   0  0
    1.7728   -3.6367   -0.4409 C   0  0
    1.5426   -1.9264   -0.7694 S   0  0
   -2.3360    2.2813   -2.4148 H   0  0
   -1.9959    3.9891   -2.3093 H   0  0
   -2.0507    3.9212    0.1477 H   0  0
   -3.5157    3.1998   -0.4650 H   0  0
   -2.5284    1.8623    1.3963 H   0  0
   -2.6408    0.9337   -0.0818 H   0  0
   -0.1490    2.3314    0.9520 H   0  0
    1.0678    1.2921   -0.9490 H   0  0
   -0.4207    0.5802   -1.5233 H   0  0
    0.0657    2.6283   -2.7946 H   0  0
    0.2172    3.5602   -1.3277 H   0  0
   -0.8322    0.3260    2.1266 H   0  0
    2.1186   -5.2836    2.5500 H   0  0
    2.2821   -7.1858    0.9767 H   0  0
    2.1264   -6.8422   -1.4455 H   0  0
    1.7984   -4.5757   -2.3961 H   0  0
  1  2  1  0
  1  6  1  0
  1 18  1  0
  1 19  1  0
  2  3  1  0
  2 20  1  0
  2 21  1  0
  3  4  1  0
  3 22  1  0
  3 23  1  0
  4  5  1  0
  4  7  1  0
  4 24  1  0
  5  6  1  0
  5 25  1  0
  5 26  1  0
  6 27  1  0
  6 28  1  0
  7  8  1  0
  7 29  1  0
  8  9  1  0
  9 10  2  0
  9 17  1  0
 10 11  1  0
 11 12  2  0
 11 16  1  0
 12 13  1  0
 12 30  1  0
 13 14  2  0
 13 31  1  0
 14 15  1  0
 14 32  1  0
 15 16  2  0
 15 33  1  0
 16 17  1  0
M  END
> <Mol2_MolInfo_Name>
12010

> <Mol2_MolInfo_Type>
SMALL

> <Mol2_MolInfo_Charge>
USER_CHARGES

> <Mol2_Substructures>
     1 UNK         1 GROUP             0       ****    0 ROOT    

> <Name>
12010

$$$$
12121
  SciTegic06232017503D

 74 75  0  0  0  0            999 V2000
   -3.2665    9.7271   -3.7755 C   0  0
   -2.5660    8.3625   -3.7216 C   0  0
   -2.9936    7.5165   -2.5092 C   0  0
   -2.3255    6.1302   -2.4790 C   0  0
   -2.7299    5.2948   -1.2511 C   0  0
   -2.0758    3.9019   -1.2336 C   0  0
   -2.4620    3.0714    0.0061 C   0  0
   -1.9241    1.6267   -0.0052 C   0  0
   -0.3883    1.5184    0.0666 C   0  0
    0.1080    0.0621    0.1015 C   0  0
    1.6427   -0.0470    0.1393 C   0  0
    2.1401   -1.5033    0.1339 C   0  0
    3.6751   -1.6137    0.1560 C   0  0
    4.1685   -3.0704    0.1183 C   0  0
    5.7059   -3.1868    0.1343 C   0  0
    6.2397   -4.6355    0.1125 C   0  0
    5.8396   -5.3423   -1.1027 N   0  0
    4.8420   -6.2997   -1.2246 C   0  0  1  0  0  0
    3.9743   -6.8231   -0.0942 C   0  0
    4.7723   -6.6839   -2.5571 N   0  0
    3.8514   -7.6824   -3.1074 C   0  0
    3.8003   -7.7694   -4.6289 C   0  0
    3.0125   -6.8689   -5.3516 C   0  0
    2.9716   -6.9421   -6.7415 C   0  0
    3.7180   -7.9148   -7.4034 C   0  0
    4.5063   -8.8144   -6.6888 C   0  0
    4.5484   -8.7416   -5.2988 C   0  0
    5.7443   -5.9723   -3.2508 C   0  0
    6.3939   -5.1401   -2.3560 C   0  0
   -2.9417   10.2972   -4.6463 H   0  0
   -3.0446   10.3220   -2.8890 H   0  0
   -4.3492    9.6135   -3.8402 H   0  0
   -2.7769    7.8173   -4.6426 H   0  0
   -1.4861    8.5162   -3.6983 H   0  0
   -2.7536    8.0554   -1.5913 H   0  0
   -4.0778    7.3933   -2.5171 H   0  0
   -2.5847    5.5852   -3.3882 H   0  0
   -1.2410    6.2500   -2.4929 H   0  0
   -2.4586    5.8340   -0.3419 H   0  0
   -3.8152    5.1845   -1.2293 H   0  0
   -2.3612    3.3591   -2.1362 H   0  0
   -0.9923    4.0184   -1.2750 H   0  0
   -2.1216    3.5796    0.9097 H   0  0
   -3.5499    3.0311    0.0792 H   0  0
   -2.3564    1.0912    0.8416 H   0  0
   -2.2865    1.1138   -0.8974 H   0  0
    0.0561    2.0205   -0.7932 H   0  0
   -0.0281    2.0466    0.9510 H   0  0
   -0.3137   -0.4453    0.9706 H   0  0
   -0.2696   -0.4672   -0.7748 H   0  0
    2.0628    0.4803   -0.7189 H   0  0
    2.0206    0.4634    1.0266 H   0  0
    1.7265   -2.0308    0.9951 H   0  0
    1.7543   -2.0121   -0.7511 H   0  0
    4.0889   -1.0709   -0.6954 H   0  0
    4.0608   -1.1212    1.0501 H   0  0
    3.7570   -3.6139    0.9701 H   0  0
    3.7725   -3.5545   -0.7755 H   0  0
    6.1231   -2.6344   -0.7093 H   0  0
    6.0896   -2.6922    1.0277 H   0  0
    7.3292   -4.6448    0.1682 H   0  0
    5.8781   -5.1883    0.9800 H   0  0
    3.2996   -7.6197   -0.4065 H   0  0
    3.3543   -6.0343    0.3315 H   0  0
    4.5776   -7.2304    0.7171 H   0  0
    4.1162   -8.6533   -2.6851 H   0  0
    2.8483   -7.4535   -2.7434 H   0  0
    2.4351   -6.1130   -4.8391 H   0  0
    2.3639   -6.2483   -7.3038 H   0  0
    3.6853   -7.9720   -8.4815 H   0  0
    5.0823   -9.5645   -7.2105 H   0  0
    5.1620   -9.4387   -4.7469 H   0  0
    5.8850   -6.1131   -4.3132 H   0  0
    7.1943   -4.4273   -2.4945 H   0  0
  1  2  1  0
  1 30  1  0
  1 31  1  0
  1 32  1  0
  2  3  1  0
  2 33  1  0
  2 34  1  0
  3  4  1  0
  3 35  1  0
  3 36  1  0
  4  5  1  0
  4 37  1  0
  4 38  1  0
  5  6  1  0
  5 39  1  0
  5 40  1  0
  6  7  1  0
  6 41  1  0
  6 42  1  0
  7  8  1  0
  7 43  1  0
  7 44  1  0
  8  9  1  0
  8 45  1  0
  8 46  1  0
  9 10  1  0
  9 47  1  0
  9 48  1  0
 10 11  1  0
 10 49  1  0
 10 50  1  0
 11 12  1  0
 11 51  1  0
 11 52  1  0
 12 13  1  0
 12 53  1  0
 12 54  1  0
 13 14  1  0
 13 55  1  0
 13 56  1  0
 14 15  1  0
 14 57  1  0
 14 58  1  0
 15 16  1  0
 15 59  1  0
 15 60  1  0
 16 17  1  0
 16 61  1  0
 16 62  1  0
 17 18  4  0
 17 29  4  0
 18 19  1  0
 18 20  4  0
 19 63  1  0
 19 64  1  0
 19 65  1  0
 20 21  1  0
 20 28  4  0
 21 22  1  0
 21 66  1  0
 21 67  1  0
 22 23  2  0
 22 27  1  0
 23 24  1  0
 23 68  1  0
 24 25  2  0
 24 69  1  0
 25 26  1  0
 25 70  1  0
 26 27  2  0
 26 71  1  0
 27 72  1  0
 28 29  4  0
 28 73  1  0
 29 74  1  0
M  END
> <Mol2_MolInfo_Name>
12121

> <Mol2_MolInfo_Type>
SMALL

> <Mol2_MolInfo_Charge>
USER_CHARGES

> <Mol2_Substructures>
     1 UNK         1 GROUP             0       ****    0 ROOT    

> <Name>
12121

$$$$
12161
  SciTegic06232017503D

 52 56  0  0  0  0            999 V2000
   -0.5922    1.3424   -0.3369 N   0  3
   -0.0869   -0.0838   -0.0925 C   0  0
    1.4557   -0.1042   -0.0559 C   0  0  2  0  0  0
    1.9432    0.5366   -1.2378 O   0  0
    3.3460    0.4250   -1.4643 C   0  0  1  0  0  0
    3.5859   -1.0631   -1.8126 C   0  0
    3.0770   -1.9735   -0.6929 C   0  0
    3.6205   -3.2529   -0.4750 C   0  0
    4.6335   -3.7161   -1.2803 O   0  0
    3.1344   -4.0706    0.5513 C   0  0
    3.6577   -5.3204    0.7722 O   0  0
    2.1042   -3.6160    1.3665 C   0  0
    1.5628   -2.3525    1.1600 C   0  0
    2.0285   -1.5178    0.1362 C   0  0
    3.7801    1.4426   -2.5699 C   0  0  2  0  0  0
    5.3195    1.3892   -2.8241 C   0  0
    5.7841    2.4301   -3.8774 C   0  0  1  0  0  0
    5.0188    2.1571   -5.1995 C   0  0
    3.4804    2.2442   -5.0122 C   0  0  2  0  0  0
    3.1388    3.6607   -4.4799 C   0  0
    3.8605    3.9692   -3.1418 C   0  0  2  0  0  0
    5.3887    3.8421   -3.3729 C   0  0
    3.4383    2.8945   -2.1061 C   0  0
    3.0629    1.2047   -3.9374 C   0  0
   -1.6016    1.3569   -0.3650 H   0  0
   -0.2344    1.6853   -1.2173 H   0  0
   -0.5521   -0.3810    0.8474 H   0  0
   -0.4996   -0.6682   -0.9157 H   0  0
    1.7861    0.5003    0.7914 H   0  0
    3.8814    0.6864   -0.5479 H   0  0
    3.0555   -1.3341   -2.7251 H   0  0
    4.6447   -1.2439   -1.9947 H   0  0
    4.9206   -4.5998   -1.0373 H   0  0
    3.2443   -5.7764    1.5093 H   0  0
    1.7237   -4.2361    2.1657 H   0  0
    0.7756   -2.0157    1.8182 H   0  0
    5.8607    1.5475   -1.8896 H   0  0
    5.6182    0.3980   -3.1660 H   0  0
    6.8615    2.3649   -4.0346 H   0  0
    5.3388    2.8662   -5.9648 H   0  0
    5.2896    1.1738   -5.5878 H   0  0
    2.9662    2.0526   -5.9550 H   0  0
    3.4057    4.4112   -5.2261 H   0  0
    2.0597    3.7562   -4.3494 H   0  0
    3.6059    4.9690   -2.7874 H   0  0
    5.9233    4.0684   -2.4489 H   0  0
    5.7191    4.5970   -4.0884 H   0  0
    2.3682    2.9893   -1.9141 H   0  0
    3.9199    3.1052   -1.1495 H   0  0
    3.2855    0.2083   -4.3201 H   0  0
    1.9797    1.2301   -3.8071 H   0  0
   -0.2755    1.9537    0.4019 H   0  0
  1  2  1  0
  1 25  1  0
  1 26  1  0
  1 52  1  0
  2  3  1  0
  2 27  1  0
  2 28  1  0
  3  4  1  0
  3 14  1  0
  3 29  1  0
  4  5  1  0
  5  6  1  0
  5 15  1  0
  5 30  1  0
  6  7  1  0
  6 31  1  0
  6 32  1  0
  7  8  2  0
  7 14  1  0
  8  9  1  0
  8 10  1  0
  9 33  1  0
 10 11  1  0
 10 12  2  0
 11 34  1  0
 12 13  1  0
 12 35  1  0
 13 14  2  0
 13 36  1  0
 15 16  1  0
 15 23  1  0
 15 24  1  0
 16 17  1  0
 16 37  1  0
 16 38  1  0
 17 18  1  0
 17 22  1  0
 17 39  1  0
 18 19  1  0
 18 40  1  0
 18 41  1  0
 19 20  1  0
 19 24  1  0
 19 42  1  0
 20 21  1  0
 20 43  1  0
 20 44  1  0
 21 22  1  0
 21 23  1  0
 21 45  1  0
 22 46  1  0
 22 47  1  0
 23 48  1  0
 23 49  1  0
 24 50  1  0
 24 51  1  0
M  CHG  1   1   1
M  END
> <Mol2_MolInfo_Name>
12161

> <Mol2_MolInfo_Type>
SMALL

> <Mol2_MolInfo_Charge>
USER_CHARGES

> <Mol2_Substructures>
     1 UNK         1 GROUP             0       ****    0 ROOT    

> <Name>
12161

$$$$
12166
  SciTegic06232017502D

 30 32  0  0  0  0            999 V2000
    0.0115    0.0837    0.0000 O   0  0
    1.3820    0.0187    0.0000 C   0  0
    2.1117    1.2022    0.0000 C   0  0
    3.5023    1.1601    0.0000 C   0  0
    4.1381    2.3852    0.0000 O   0  0
    5.4993    2.4370    0.0000 C   0  0
    6.2714    1.3251    0.0000 C   0  0
    5.7134   -0.0233    0.0000 C   0  0
    6.4203   -1.0300    0.0000 O   0  0
    4.2050   -0.0594    0.0000 C   0  0
    3.4509   -1.2553    0.0000 C   0  0
    4.0572   -2.4902    0.0000 O   0  0
    2.0468   -1.2123    0.0000 C   0  0
    1.3168   -2.3792    0.0000 O   0  0
    5.9960    3.8480    0.0000 C   0  0
    7.3704    4.1407    0.0000 C   0  0
    7.8238    5.4573    0.0000 C   0  0
    6.9077    6.5035    0.0000 C   0  0
    5.5421    6.2417    0.0000 C   0  0
    5.0920    4.9244    0.0000 C   0  0
   -0.3194    0.9846    0.0000 H   0  0
    1.6042    2.1558    0.0000 H   0  0
    7.3455    1.4157    0.0000 H   0  0
    3.4191   -3.2076    0.0000 H   0  0
    0.3689   -2.2241    0.0000 H   0  0
    8.1137    3.3593    0.0000 H   0  0
    8.8836    5.6656    0.0000 H   0  0
    7.2585    7.5250    0.0000 H   0  0
    4.8332    7.0566    0.0000 H   0  0
    4.0252    4.7560    0.0000 H   0  0
  1  2  1  0
  1 21  1  0
  2  3  2  0
  2 13  1  0
  3  4  1  0
  3 22  1  0
  4  5  1  0
  4 10  2  0
  5  6  1  0
  6  7  2  0
  6 15  1  0
  7  8  1  0
  7 23  1  0
  8  9  2  0
  8 10  1  0
 10 11  1  0
 11 12  1  0
 11 13  2  0
 12 24  1  0
 13 14  1  0
 14 25  1  0
 15 16  2  0
 15 20  1  0
 16 17  1  0
 16 26  1  0
 17 18  2  0
 17 27  1  0
 18 19  1  0
 18 28  1  0
 19 20  2  0
 19 29  1  0
 20 30  1  0
M  END
> <Mol2_MolInfo_Name>
12166

> <Mol2_MolInfo_Type>
SMALL

> <Mol2_MolInfo_Charge>
USER_CHARGES

> <Mol2_Substructures>
     1 UNK         1 GROUP             0       ****    0 ROOT    

> <Name>
12166

$$$$
12207
  SciTegic06232017503D

 34 37  0  0  0  0            999 V2000
   -2.0449    3.4401    1.8785 O   0  5
   -2.4237    2.7493    0.9380 N   0  3
   -3.5175    2.8552    0.3930 O   0  0
   -1.5329    1.7539    0.4346 C   0  0
   -1.7258    0.8624   -0.6217 C   0  0
   -0.7223    0.0544   -0.9003 N   0  0
    0.3052    0.2520   -0.1091 C   0  0
    1.8485   -0.5918   -0.2244 S   0  0
    2.2313   -0.4574   -1.9934 C   0  0
    2.6341   -1.4050   -2.7093 N   0  0
    2.7698   -0.8471   -3.9024 N   0  0
    2.3442    0.4199   -3.9771 C   0  0
    2.2602    1.1357   -4.9758 O   0  0
    2.1122    0.7119   -2.6768 N   0  0
    1.8172    2.0049   -2.1924 C   0  0
    0.7150    2.7156   -2.6957 C   0  0
    0.3890    3.9725   -2.1851 C   0  0
    1.1691    4.5306   -1.1743 C   0  0
    0.7691    5.7437   -0.6514 O   0  0
    1.7758    6.4116    0.1163 C   0  0
    2.4903    5.4165    1.0615 C   0  0
    3.0921    4.3577    0.3096 O   0  0
    2.2741    3.8285   -0.6677 C   0  0
    2.6078    2.5779   -1.1851 C   0  0
    0.0547    1.4723    1.0993 S   0  0
   -2.6228    0.7999   -1.2202 H   0  0
    3.0874   -1.4256   -4.6671 H   0  0
    0.0940    2.2850   -3.4682 H   0  0
   -0.4729    4.5023   -2.5638 H   0  0
    2.5087    6.8543   -0.5605 H   0  0
    1.3178    7.2210    0.6853 H   0  0
    3.2563    5.9245    1.6477 H   0  0
    1.7624    4.9954    1.7576 H   0  0
    3.4654    2.0489   -0.7940 H   0  0
  1  2  1  0
  2  3  2  0
  2  4  1  0
  4  5  2  0
  4 25  1  0
  5  6  1  0
  5 26  1  0
  6  7  2  0
  7  8  1  0
  7 25  1  0
  8  9  1  0
  9 10  2  0
  9 14  1  0
 10 11  1  0
 11 12  1  0
 11 27  1  0
 12 13  2  0
 12 14  1  0
 14 15  1  0
 15 16  2  0
 15 24  1  0
 16 17  1  0
 16 28  1  0
 17 18  2  0
 17 29  1  0
 18 19  1  0
 18 23  1  0
 19 20  1  0
 20 21  1  0
 20 30  1  0
 20 31  1  0
 21 22  1  0
 21 32  1  0
 21 33  1  0
 22 23  1  0
 23 24  2  0
 24 34  1  0
M  CHG  2   1  -1   2   1
M  END
> <Mol2_MolInfo_Name>
12207

> <Mol2_MolInfo_Type>
SMALL

> <Mol2_MolInfo_Charge>
USER_CHARGES

> <Mol2_Substructures>
     1 UNK         1 GROUP             0       ****    0 ROOT    

> <Name>
12207

$$$$
12238
  SciTegic06232017503D

 33 35  0  0  0  0            999 V2000
   -1.2491   -4.5951   -0.3115 N   0  0
   -1.4755   -3.2090   -0.1683 C   0  0
   -2.7865   -2.7675   -0.0609 N   0  0
   -3.1855   -1.4545    0.0878 C   0  0
   -4.8085   -1.1147    0.2074 S   0  0
   -2.0781   -0.5140    0.1220 C   0  0
   -2.0540    0.7979    0.2662 N   0  0
   -0.7729    1.0941    0.2378 C   0  0
    0.0783    0.0179    0.0510 N   0  0
    1.5331    0.0098   -0.0147 C   0  0  2  0  0  0
    2.0252    1.3218   -0.0245 O   0  0
    2.4247    1.7407   -1.3305 C   0  0  2  0  0  0
    1.7096    3.0473   -1.7253 C   0  0
    2.0900    4.1076   -0.8727 O   0  0
    2.0911    0.5374   -2.2219 C   0  0  1  0  0  0
    2.9536    0.4047   -3.3373 O   0  0
    2.1290   -0.6512   -1.2614 C   0  0  1  0  0  0
    3.4257   -1.1362   -0.9498 O   0  0
   -0.7976   -1.0449   -0.0029 C   0  0
   -0.4853   -2.3722   -0.1412 N   0  0
   -0.3144   -4.9759   -0.2834 H   0  0
   -1.9799   -5.2678   -0.1308 H   0  0
   -0.3629    2.0873    0.3457 H   0  0
    1.8387   -0.4868    0.9083 H   0  0
    3.5054    1.8988   -1.3163 H   0  0
    1.9689    3.3219   -2.7483 H   0  0
    0.6261    2.9295   -1.6980 H   0  0
    1.6370    4.9057   -1.1547 H   0  0
    1.0679    0.6439   -2.5894 H   0  0
    2.7655   -0.4302   -3.7721 H   0  0
    1.5069   -1.4707   -1.6204 H   0  0
    3.7818   -1.5792   -1.7234 H   0  0
   -3.5510   -3.4264   -0.0867 H   0  0
  1  2  1  0
  1 21  1  0
  1 22  1  0
  2  3  1  0
  2 20  2  0
  3  4  1  0
  3 33  1  0
  4  5  2  0
  4  6  1  0
  6  7  1  0
  6 19  2  0
  7  8  2  0
  8  9  1  0
  8 23  1  0
  9 10  1  0
  9 19  1  0
 10 11  1  0
 10 17  1  0
 10 24  1  0
 11 12  1  0
 12 13  1  0
 12 15  1  0
 12 25  1  0
 13 14  1  0
 13 26  1  0
 13 27  1  0
 14 28  1  0
 15 16  1  0
 15 17  1  0
 15 29  1  0
 16 30  1  0
 17 18  1  0
 17 31  1  0
 18 32  1  0
 19 20  1  0
M  END
> <Mol2_MolInfo_Name>
12238

> <Mol2_MolInfo_Type>
SMALL

> <Mol2_MolInfo_Charge>
USER_CHARGES

> <Mol2_Substructures>
     1 UNK         1 GROUP             0       ****    0 ROOT    

> <Name>
12238

$$$$
12313
  SciTegic06232017503D

 36 39  0  0  0  0            999 V2000
    0.0013    0.0081   -0.0088 O   0  0
    1.3728   -0.0085    0.0182 C   0  0
    2.0658    1.2038    0.0157 C   0  0
    3.4600    1.2096    0.0681 C   0  0
    4.4162    2.3816    0.0516 C   0  0
    5.7684    1.7548    0.4351 C   0  0  1  0  0  0
    6.8579    2.4527   -0.1440 O   0  0
    6.0134    1.8092    1.9678 C   0  0
    7.1919    1.0949    2.3388 O   0  0
    7.2514   -0.2159    1.9006 C   0  0
    8.0789   -1.0801    2.6309 C   0  0
    8.7323   -0.6308    3.7536 O   0  0
    8.2422   -2.4043    2.2080 C   0  0
    9.0420   -3.2766    2.9034 O   0  0
    7.5931   -2.8500    1.0586 C   0  0
    6.7781   -1.9830    0.3345 C   0  0
    6.5823   -0.6583    0.7409 C   0  0
    5.6638    0.2896   -0.0384 C   0  0  1  0  0  0
    4.1700    0.0062    0.0386 C   0  0
    3.4774   -1.2079    0.0508 C   0  0
    2.0809   -1.2182    0.0462 C   0  0
    1.4238   -2.4228    0.0535 O   0  0
   -0.3643    0.8951   -0.0288 H   0  0
    1.5174    2.1345   -0.0070 H   0  0
    4.4529    2.8107   -0.9513 H   0  0
    4.1264    3.1850    0.7306 H   0  0
    7.6721    2.0248    0.1322 H   0  0
    6.0692    2.8368    2.3303 H   0  0
    5.1684    1.3504    2.4864 H   0  0
    9.2694   -1.3134    4.1629 H   0  0
    9.0777   -4.1501    2.5069 H   0  0
    7.7186   -3.8687    0.7210 H   0  0
    6.2872   -2.3479   -0.5559 H   0  0
    5.9669    0.2270   -1.0858 H   0  0
    4.0099   -2.1469    0.0431 H   0  0
    2.0185   -3.1758    0.0689 H   0  0
  1  2  1  0
  1 23  1  0
  2  3  2  0
  2 21  1  0
  3  4  1  0
  3 24  1  0
  4  5  1  0
  4 19  2  0
  5  6  1  0
  5 25  1  0
  5 26  1  0
  6  7  1  0
  6  8  1  0
  6 18  1  0
  7 27  1  0
  8  9  1  0
  8 28  1  0
  8 29  1  0
  9 10  1  0
 10 11  2  0
 10 17  1  0
 11 12  1  0
 11 13  1  0
 12 30  1  0
 13 14  1  0
 13 15  2  0
 14 31  1  0
 15 16  1  0
 15 32  1  0
 16 17  2  0
 16 33  1  0
 17 18  1  0
 18 19  1  0
 18 34  1  0
 19 20  1  0
 20 21  2  0
 20 35  1  0
 21 22  1  0
 22 36  1  0
M  END
> <Mol2_MolInfo_Name>
12313

> <Mol2_MolInfo_Type>
SMALL

> <Mol2_MolInfo_Charge>
USER_CHARGES

> <Mol2_Substructures>
     1 UNK         1 GROUP             0       ****    0 ROOT    

> <Name>
12313

$$$$
12338
  SciTegic06232017503D

 33 35  0  0  0  0            999 V2000
    0.1639    2.2527    0.5026 Cl  0  0
   -0.5236    0.6779    0.0824 C   0  0
    0.0706   -0.3637   -0.5091 C   0  0
    1.3685   -0.5063   -0.9778 N   0  0
    2.2644   -1.6092   -0.6055 C   0  0
    3.4455   -1.0823    0.2383 C   0  0
    4.1478   -0.0833   -0.4972 O   0  0
    3.3118    1.0237   -0.8254 C   0  0
    2.1219    0.5372   -1.6830 C   0  0
   -0.9083   -1.4124   -0.6218 C   0  0
   -0.7463   -2.5333   -1.1123 O   0  0
   -2.0503   -0.9289   -0.0740 N   0  0
   -1.8797    0.3377    0.3730 C   0  0
   -2.7224    1.0577    0.9122 O   0  0
   -3.2673   -1.6551    0.0193 C   0  0
   -3.9658   -1.7281    1.2348 C   0  0
   -5.1593   -2.4429    1.3235 C   0  0
   -5.6755   -3.0953    0.2036 C   0  0
   -7.1591   -3.9713    0.3563 Cl  0  0
   -4.9898   -3.0301   -1.0160 C   0  0
   -5.5928   -3.8214   -2.4310 Cl  0  0
   -3.7949   -2.3140   -1.1030 C   0  0
    1.7106   -2.2894    0.0430 H   0  0
    2.4994   -2.2713   -1.4396 H   0  0
    3.0991   -0.6890    1.1965 H   0  0
    4.1242   -1.9002    0.4805 H   0  0
    2.9696    1.5303    0.0787 H   0  0
    3.8901    1.7638   -1.3788 H   0  0
    2.3340    0.2763   -2.7204 H   0  0
    1.4618    1.3928   -1.8268 H   0  0
   -3.5841   -1.2376    2.1188 H   0  0
   -5.6831   -2.4902    2.2673 H   0  0
   -3.2808   -2.2667   -2.0527 H   0  0
  1  2  1  0
  2  3  2  0
  2 13  1  0
  3  4  1  0
  3 10  1  0
  4  5  1  0
  4  9  1  0
  5  6  1  0
  5 23  1  0
  5 24  1  0
  6  7  1  0
  6 25  1  0
  6 26  1  0
  7  8  1  0
  8  9  1  0
  8 27  1  0
  8 28  1  0
  9 29  1  0
  9 30  1  0
 10 11  2  0
 10 12  1  0
 12 13  1  0
 12 15  1  0
 13 14  2  0
 15 16  2  0
 15 22  1  0
 16 17  1  0
 16 31  1  0
 17 18  2  0
 17 32  1  0
 18 19  1  0
 18 20  1  0
 20 21  1  0
 20 22  2  0
 22 33  1  0
M  END
> <Mol2_MolInfo_Name>
12338

> <Mol2_MolInfo_Type>
SMALL

> <Mol2_MolInfo_Charge>
USER_CHARGES

> <Mol2_Substructures>
     1 UNK         1 GROUP             0       ****    0 ROOT    

> <Name>
12338

$$$$
12364
  SciTegic06232017503D

100105  0  0  0  0            999 V2000
   -1.4885    4.5265    1.0921 C   0  0
   -2.3931    4.2110   -0.1274 C   0  0  1  0  0  0
   -1.7063    4.4855   -1.4912 C   0  0
   -2.8712    2.7429   -0.0544 C   0  0
   -2.1540    1.5906   -0.0672 C   0  0
   -0.7103    1.4842   -0.1775 C   0  0
   -0.0423    0.3173   -0.0865 C   0  0
    1.4038    0.1818   -0.1883 C   0  0
    2.2847    1.1594    0.1006 C   0  0
    3.7228    1.0169   -0.0180 C   0  0
    4.5454    2.0726    0.1400 C   0  0
    5.9365    2.0901    0.0648 C   0  0
    6.6471    3.2258    0.1816 N   0  0
    6.0946    4.6095    0.3767 C   0  0
    5.6413    5.2092   -0.9724 C   0  0
    4.6859    6.4070   -0.8290 C   0  0
    3.2875    6.0130   -0.3124 C   0  0
    2.1168    7.5009   -0.3269 S   0  0
    2.0648    7.8965   -1.7385 O   0  0
    2.7704    8.4715    0.5576 O   0  0
    0.8626    6.9492    0.1959 O   0  5
    8.0362    2.9602    0.0788 C   0  0
    9.0919    3.8677    0.1382 C   0  0
   10.4006    3.4147    0.0269 C   0  0
   10.6709    2.0367   -0.1516 C   0  0
   12.0017    1.5625   -0.2655 C   0  0
   12.2535    0.2068   -0.4470 C   0  0
   11.2039   -0.6996   -0.5198 C   0  0
    9.8853   -0.2675   -0.4102 C   0  0
    9.5812    1.1088   -0.2211 C   0  0
    8.2428    1.6043   -0.1006 C   0  0
    6.8898    0.9133   -0.1429 C   0  0  1  0  0  0
    6.7383   -0.1065    1.0179 C   0  0
    6.6509    0.2639   -1.5333 C   0  0
   -4.2552    2.8172    0.0470 N   0  0
   -5.1968    1.6880    0.0511 C   0  0
   -5.7029    1.2780   -1.3498 C   0  0
   -4.6000    0.8871   -2.3515 C   0  0
   -5.1563    0.4238   -3.7079 C   0  0
   -3.7449   -0.0704   -4.8701 S   0  0
   -2.9541    1.1576   -5.0067 O   0  0
   -3.0662   -1.1581   -4.1569 O   0  0
   -4.4400   -0.4852   -6.0930 O   0  5
   -4.7497    4.1245    0.0418 C   0  0
   -6.0676    4.5738    0.1231 C   0  0
   -6.3474    5.9342    0.1217 C   0  0
   -5.3002    6.8805    0.0384 C   0  0
   -5.5726    8.2717    0.0374 C   0  0
   -4.5343    9.1928   -0.0481 C   0  0
   -3.2173    8.7610   -0.1346 C   0  0
   -2.9162    7.4024   -0.1357 C   0  0
   -3.9455    6.4236   -0.0471 C   0  0
   -3.6897    5.0129   -0.0416 C   0  0
   -1.9791    4.2584    2.0291 H   0  0
   -1.2345    5.5811    1.1641 H   0  0
   -0.5420    3.9904    1.0611 H   0  0
   -2.3682    4.2419   -2.3239 H   0  0
   -0.7950    3.9100   -1.6334 H   0  0
   -1.4187    5.5284   -1.6091 H   0  0
   -2.6833    0.6535    0.0057 H   0  0
   -0.1341    2.3778   -0.3438 H   0  0
   -0.6101   -0.5864    0.0855 H   0  0
    1.7859   -0.7679   -0.5356 H   0  0
    1.9069    2.1124    0.4435 H   0  0
    4.1074    0.0338   -0.2343 H   0  0
    4.0654    3.0171    0.3472 H   0  0
    5.2887    4.5316    1.1057 H   0  0
    6.8694    5.2185    0.8399 H   0  0
    6.5245    5.5208   -1.5320 H   0  0
    5.1497    4.4527   -1.5864 H   0  0
    5.1287    7.1582   -0.1736 H   0  0
    4.5816    6.8832   -1.8046 H   0  0
    2.8351    5.2388   -0.9326 H   0  0
    3.3248    5.6490    0.7138 H   0  0
    8.9239    4.9260    0.2689 H   0  0
   11.2203    4.1173    0.0756 H   0  0
   12.8244    2.2612   -0.2115 H   0  0
   13.2716   -0.1436   -0.5330 H   0  0
   11.4133   -1.7496   -0.6627 H   0  0
    9.0964   -0.9984   -0.4728 H   0  0
    6.9168    0.3592    1.9889 H   0  0
    7.4446   -0.9300    0.9330 H   0  0
    5.7514   -0.5638    1.0585 H   0  0
    6.7391    0.9946   -2.3397 H   0  0
    5.6742   -0.2043   -1.6319 H   0  0
    7.3766   -0.5194   -1.7444 H   0  0
   -4.6801    0.8435    0.5036 H   0  0
   -6.0430    1.8929    0.7072 H   0  0
   -6.4039    0.4500   -1.2375 H   0  0
   -6.2817    2.1015   -1.7707 H   0  0
   -3.9323    1.7337   -2.5140 H   0  0
   -3.9924    0.0892   -1.9234 H   0  0
   -5.8054   -0.4449   -3.5980 H   0  0
   -5.7214    1.2158   -4.1996 H   0  0
   -6.8931    3.8813    0.1879 H   0  0
   -7.3710    6.2751    0.1855 H   0  0
   -6.5947    8.6161    0.1033 H   0  0
   -4.7525   10.2506   -0.0484 H   0  0
   -2.4186    9.4854   -0.2018 H   0  0
   -1.8821    7.1084   -0.2060 H   0  0
  1  2  1  0
  1 54  1  0
  1 55  1  0
  1 56  1  0
  2  3  1  0
  2  4  1  0
  2 53  1  0
  3 57  1  0
  3 58  1  0
  3 59  1  0
  4  5  2  0
  4 35  1  0
  5  6  1  0
  5 60  1  0
  6  7  2  0
  6 61  1  0
  7  8  1  0
  7 62  1  0
  8  9  2  0
  8 63  1  0
  9 10  1  0
  9 64  1  0
 10 11  2  0
 10 65  1  0
 11 12  1  0
 11 66  1  0
 12 13  2  0
 12 32  1  0
 13 14  1  0
 13 22  1  0
 14 15  1  0
 14 67  1  0
 14 68  1  0
 15 16  1  0
 15 69  1  0
 15 70  1  0
 16 17  1  0
 16 71  1  0
 16 72  1  0
 17 18  1  0
 17 73  1  0
 17 74  1  0
 18 19  2  0
 18 20  2  0
 18 21  1  0
 22 23  2  0
 22 31  1  0
 23 24  1  0
 23 75  1  0
 24 25  2  0
 24 76  1  0
 25 26  1  0
 25 30  1  0
 26 27  2  0
 26 77  1  0
 27 28  1  0
 27 78  1  0
 28 29  2  0
 28 79  1  0
 29 30  1  0
 29 80  1  0
 30 31  2  0
 31 32  1  0
 32 33  1  0
 32 34  1  0
 33 81  1  0
 33 82  1  0
 33 83  1  0
 34 84  1  0
 34 85  1  0
 34 86  1  0
 35 36  1  0
 35 44  1  0
 36 37  1  0
 36 87  1  0
 36 88  1  0
 37 38  1  0
 37 89  1  0
 37 90  1  0
 38 39  1  0
 38 91  1  0
 38 92  1  0
 39 40  1  0
 39 93  1  0
 39 94  1  0
 40 41  2  0
 40 42  2  0
 40 43  1  0
 44 45  2  0
 44 53  1  0
 45 46  1  0
 45 95  1  0
 46 47  2  0
 46 96  1  0
 47 48  1  0
 47 52  1  0
 48 49  2  0
 48 97  1  0
 49 50  1  0
 49 98  1  0
 50 51  2  0
 50 99  1  0
 51 52  1  0
 51100  1  0
 52 53  2  0
M  CHG  2  21  -1  43  -1
M  END
> <Mol2_MolInfo_Name>
12364

> <Mol2_MolInfo_Type>
SMALL

> <Mol2_MolInfo_Charge>
USER_CHARGES

> <Mol2_Substructures>
     1 UNK         1 GROUP             0       ****    0 ROOT    

> <Name>
12364

$$$$
12367
  SciTegic06232017503D

 16 16  0  0  0  0            999 V2000
   -0.9203   -1.3788   -0.3492 S   0  0
   -0.1298    0.1069   -0.1213 C   0  0
   -1.0859    1.3589    0.5130 S   0  0
    1.2073    0.2859   -0.4325 N   0  0
    2.0792   -0.7055   -1.1153 C   0  0
    3.3399    0.0658   -1.4933 C   0  0
    3.4588    1.0932   -0.3932 C   0  0
    2.0110    1.5015   -0.1393 C   0  0
    2.3199   -1.5071   -0.4152 H   0  0
    1.6057   -1.1385   -1.9977 H   0  0
    4.2143   -0.5795   -1.5844 H   0  0
    3.2005    0.5622   -2.4555 H   0  0
    3.8807    0.6341    0.5028 H   0  0
    4.0936    1.9404   -0.6539 H   0  0
    1.7150    2.2963   -0.8258 H   0  0
    1.8769    1.8520    0.8852 H   0  0
  1  2  1  0
  2  3  2  0
  2  4  1  0
  4  5  1  0
  4  8  1  0
  5  6  1  0
  5  9  1  0
  5 10  1  0
  6  7  1  0
  6 11  1  0
  6 12  1  0
  7  8  1  0
  7 13  1  0
  7 14  1  0
  8 15  1  0
  8 16  1  0
M  END
> <Mol2_MolInfo_Name>
12367

> <Mol2_MolInfo_Type>
SMALL

> <Mol2_MolInfo_Charge>
USER_CHARGES

> <Mol2_Substructures>
     1 UNK         1 GROUP             0       ****    0 ROOT    

> <Name>
12367

$$$$
12403
  SciTegic06232017503D

 29 31  0  0  0  0            999 V2000
    0.1256   -0.0092   -0.0100 N   0  0
    1.4897    0.0063   -0.0038 C   0  0
    2.2224    1.0860   -0.0164 N   0  0
    3.5226    0.8295   -0.0174 C   0  0
    4.4802    1.9784   -0.0672 C   0  0
    5.6059    1.9238   -0.8971 C   0  0
    6.5014    2.9910   -0.9482 C   0  0
    6.2830    4.1308   -0.1739 C   0  0
    7.4176    5.4333   -0.2642 Cl  0  0
    5.1563    4.2005    0.6555 C   0  0
    4.8416    5.5942    1.6306 Cl  0  0
    4.2631    3.1284    0.7030 C   0  0
    3.8496   -0.5407    0.0172 C   0  0
    2.3733   -1.4743    0.0202 S   0  0
    5.1624   -1.2462    0.0800 C   0  0
    5.4153   -2.3744   -0.7116 C   0  0
    6.6622   -2.9961   -0.6214 C   0  0
    7.6484   -2.5564    0.2010 N   0  0
    7.3929   -1.4632    0.9636 C   0  0
    6.1728   -0.7855    0.9339 C   0  0
   -0.4116    0.8460   -0.0249 H   0  0
   -0.3959   -0.8740   -0.0136 H   0  0
    5.7911    1.0533   -1.5097 H   0  0
    7.3659    2.9315   -1.5932 H   0  0
    3.3975    3.1902    1.3473 H   0  0
    4.6661   -2.7609   -1.3873 H   0  0
    6.8870   -3.8669   -1.2194 H   0  0
    8.1911   -1.1306    1.6108 H   0  0
    6.0186    0.0790    1.5634 H   0  0
  1  2  1  0
  1 21  1  0
  1 22  1  0
  2  3  2  0
  2 14  1  0
  3  4  1  0
  4  5  1  0
  4 13  2  0
  5  6  2  0
  5 12  1  0
  6  7  1  0
  6 23  1  0
  7  8  2  0
  7 24  1  0
  8  9  1  0
  8 10  1  0
 10 11  1  0
 10 12  2  0
 12 25  1  0
 13 14  1  0
 13 15  1  0
 15 16  2  0
 15 20  1  0
 16 17  1  0
 16 26  1  0
 17 18  2  0
 17 27  1  0
 18 19  1  0
 19 20  2  0
 19 28  1  0
 20 29  1  0
M  END
> <Mol2_MolInfo_Name>
12403

> <Mol2_MolInfo_Type>
SMALL

> <Mol2_MolInfo_Charge>
USER_CHARGES

> <Mol2_Substructures>
     1 UNK         1 GROUP             0       ****    0 ROOT    

> <Name>
12403

$$$$
12472
  SciTegic06232017503D

 43 46  0  0  0  0            999 V2000
   -2.4542   -2.7156   -2.1121 O   0  5
   -2.8646   -2.4827   -0.9520 C   0  0
   -3.7477   -3.1486   -0.3664 O   0  0
   -2.2166   -1.3559   -0.2043 C   0  0
   -0.8404   -1.1334   -0.3770 C   0  0
   -0.1737   -0.0970    0.2922 C   0  0
   -0.9043    0.7354    1.1478 C   0  0
   -2.2719    0.5419    1.3163 C   0  0
   -2.9365   -0.4866    0.6464 C   0  0
   -4.6499   -0.6007    0.8945 Cl  0  0
    1.2148    0.1033    0.1150 N   0  0
    1.9773    0.3484    1.1909 N   0  0
    3.1758    0.4930    0.8149 C   0  0
    3.2599    0.3318   -0.6031 C   0  0
    4.3654    0.4133   -1.3836 C   0  0
    4.5331    0.2580   -2.8198 C   0  0
    5.4469    1.0564   -3.4340 O   0  0
    5.4672    0.7605   -4.7625 C   0  0
    4.5584   -0.2605   -5.0018 C   0  0
    3.9800   -0.5849   -3.7757 C   0  0
    6.3971    1.5394   -5.6334 C   0  0
    6.3669    1.3486   -7.0191 C   0  0
    7.2250    2.0703   -7.8450 C   0  0
    8.1165    2.9823   -7.2856 C   0  0
    8.1569    3.1793   -5.9076 C   0  0
    7.2971    2.4595   -5.0820 C   0  0
    1.9075    0.0873   -1.0401 C   0  0
    1.4642   -0.0796   -2.1773 O   0  0
    4.3616    0.7918    1.7320 C   0  0  1  0  0  0
    5.2654   -0.1829    1.6303 F   0  0
    4.9266    1.9454    1.3751 F   0  0
    3.9691    0.8819    3.0045 F   0  0
   -0.2741   -1.7864   -1.0274 H   0  0
   -0.4202    1.5447    1.6755 H   0  0
   -2.8220    1.2048    1.9681 H   0  0
    5.3054    0.6454   -0.9035 H   0  0
    4.3432   -0.7234   -5.9534 H   0  0
    3.2388   -1.3517   -3.6056 H   0  0
    5.6789    0.6442   -7.4633 H   0  0
    7.1988    1.9240   -8.9148 H   0  0
    8.7827    3.5419   -7.9259 H   0  0
    8.8518    3.8876   -5.4809 H   0  0
    7.3379    2.6212   -4.0146 H   0  0
  1  2  1  0
  2  3  2  0
  2  4  1  0
  4  5  2  0
  4  9  1  0
  5  6  1  0
  5 33  1  0
  6  7  2  0
  6 11  1  0
  7  8  1  0
  7 34  1  0
  8  9  2  0
  8 35  1  0
  9 10  1  0
 11 12  1  0
 11 27  1  0
 12 13  2  0
 13 14  1  0
 13 29  1  0
 14 15  2  0
 14 27  1  0
 15 16  1  0
 15 36  1  0
 16 17  1  0
 16 20  2  0
 17 18  1  0
 18 19  2  0
 18 21  1  0
 19 20  1  0
 19 37  1  0
 20 38  1  0
 21 22  2  0
 21 26  1  0
 22 23  1  0
 22 39  1  0
 23 24  2  0
 23 40  1  0
 24 25  1  0
 24 41  1  0
 25 26  2  0
 25 42  1  0
 26 43  1  0
 27 28  2  0
 29 30  1  0
 29 31  1  0
 29 32  1  0
M  CHG  1   1  -1
M  END
> <Mol2_MolInfo_Name>
12472

> <Mol2_MolInfo_Type>
SMALL

> <Mol2_MolInfo_Charge>
USER_CHARGES

> <Mol2_Substructures>
     1 UNK         1 GROUP             0       ****    0 ROOT    

> <Name>
12472

$$$$
12523
  SciTegic06232017503D

 14 13  0  0  0  0            999 V2000
    0.6684   -0.9315   -2.3480 O   0  5
   -0.2157   -0.9820   -1.4623 C   0  0
   -1.2880   -1.6189   -1.5751 O   0  0
    0.0066   -0.2145   -0.1356 C   0  0  2  0  0  0
   -1.1137    1.2309   -0.2040 S   0  0
    1.4981    0.2161    0.1303 C   0  0  2  0  0  0
    2.6120   -1.2318    0.2255 S   0  0
    1.7137    0.9910    1.4525 C   0  0
    2.7363    1.7098    1.5265 O   0  0
    0.8746    0.8605    2.3732 O   0  5
   -0.3358   -0.8582    0.6768 H   0  0
   -0.8991    1.6220    1.0560 H   0  0
    1.8453    0.8497   -0.6879 H   0  0
    2.3973   -1.6432   -1.0279 H   0  0
  1  2  1  0
  2  3  2  0
  2  4  1  0
  4  5  1  0
  4  6  1  0
  4 11  1  0
  5 12  1  0
  6  7  1  0
  6  8  1  0
  6 13  1  0
  7 14  1  0
  8  9  2  0
  8 10  1  0
M  CHG  2   1  -1  10  -1
M  END
> <Mol2_MolInfo_Name>
12523

> <Mol2_MolInfo_Type>
SMALL

> <Mol2_MolInfo_Charge>
USER_CHARGES

> <Mol2_Substructures>
     1 UNK         1 GROUP             0       ****    0 ROOT    

> <Name>
12523

$$$$
12541
  SciTegic06232017503D

 72 77  0  0  0  0            999 V2000
   -4.2021    2.3109   -2.9622 C   0  0
   -4.0845    2.7385   -1.4909 C   0  0
   -2.9237    3.6067   -1.2949 N   0  0
   -2.8707    4.9999   -1.2989 C   0  0
   -1.6581    5.4558   -1.0778 N   0  0
   -0.8720    4.3467   -0.9551 C   0  0
    0.5045    4.2281   -0.7273 C   0  0
    1.1043    3.0143   -0.6488 N   0  0
    0.3510    1.8842   -0.7958 C   0  0
    0.9708    0.6479   -0.7245 O   0  0
    2.3382    0.5042   -0.6229 C   0  0
    3.1916    0.9388   -1.6421 C   0  0
    4.5677    0.7491   -1.5319 C   0  0
    5.1003    0.1163   -0.4089 C   0  0
    4.2533   -0.3321    0.6196 C   0  0
    4.6878   -1.0105    1.7741 N   0  0
    5.9309   -1.1008    2.3024 C   0  0
    6.9161   -0.5121    1.8525 O   0  0
    6.0721   -1.9916    3.5233 C   0  0
    7.3452   -2.2502    4.0505 C   0  0
    7.5007   -3.0711    5.1637 C   0  0
    6.3933   -3.6519    5.7784 C   0  0
    6.6468   -4.4555    6.8734 O   0  0
    5.5625   -5.1113    7.5283 C   0  0
    6.0965   -6.0002    8.6705 C   0  0
    7.0901   -6.9931    8.2432 N   0  0
    7.6920   -7.6479    9.4126 C   0  0
    8.7050   -8.7368    8.9999 C   0  0
    8.0864   -9.6693    8.1209 O   0  0
    7.6068   -9.0520    6.9318 C   0  0
    6.5625   -7.9685    7.2769 C   0  0
    5.1149   -3.3934    5.2639 C   0  0
    4.9575   -2.5737    4.1497 C   0  0
    2.8730   -0.1415    0.4939 C   0  0
   -1.0312    1.8986   -1.0151 C   0  0
   -1.6288    3.1636   -1.0943 C   0  0
   -4.0063    5.9177   -1.5424 C   0  0
   -5.0427    5.5765   -2.2708 N   0  0
   -5.8665    6.6980   -2.2647 O   0  0
   -5.3030    7.7285   -1.5190 N   0  0
   -4.1703    7.2347   -1.0898 C   0  0
   -3.3427    7.9914   -0.3095 N   0  0
   -5.0677    1.6645   -3.1077 H   0  0
   -3.3203    1.7580   -3.2881 H   0  0
   -4.3192    3.1707   -3.6223 H   0  0
   -4.9850    3.2463   -1.1476 H   0  0
   -3.9704    1.8632   -0.8500 H   0  0
    1.1362    5.0965   -0.6111 H   0  0
    2.7859    1.4217   -2.5189 H   0  0
    5.2225    1.0843   -2.3226 H   0  0
    6.1680   -0.0308   -0.3757 H   0  0
    3.9542   -1.4831    2.2809 H   0  0
    8.2306   -1.8221    3.6018 H   0  0
    8.4915   -3.2602    5.5508 H   0  0
    4.8863   -4.3656    7.9496 H   0  0
    4.9788   -5.7062    6.8243 H   0  0
    6.5501   -5.3464    9.4173 H   0  0
    5.2633   -6.5030    9.1650 H   0  0
    8.1832   -6.8991   10.0358 H   0  0
    6.9085   -8.0886   10.0322 H   0  0
    9.5867   -8.2951    8.5315 H   0  0
    9.0573   -9.2710    9.8824 H   0  0
    8.4353   -8.6291    6.3600 H   0  0
    7.1536   -9.8166    6.3006 H   0  0
    5.6658   -8.4375    7.6855 H   0  0
    6.2508   -7.4608    6.3645 H   0  0
    4.2312   -3.8192    5.7141 H   0  0
    3.9543   -2.4025    3.7873 H   0  0
    2.2027   -0.4919    1.2661 H   0  0
   -1.5955    0.9841   -1.1228 H   0  0
   -2.4563    7.6348    0.0189 H   0  0
   -3.5782    8.9387   -0.0506 H   0  0
  1  2  1  0
  1 43  1  0
  1 44  1  0
  1 45  1  0
  2  3  1  0
  2 46  1  0
  2 47  1  0
  3  4  1  0
  3 36  1  0
  4  5  2  0
  4 37  1  0
  5  6  1  0
  6  7  2  0
  6 36  1  0
  7  8  1  0
  7 48  1  0
  8  9  2  0
  9 10  1  0
  9 35  1  0
 10 11  1  0
 11 12  2  0
 11 34  1  0
 12 13  1  0
 12 49  1  0
 13 14  2  0
 13 50  1  0
 14 15  1  0
 14 51  1  0
 15 16  1  0
 15 34  2  0
 16 17  1  0
 16 52  1  0
 17 18  2  0
 17 19  1  0
 19 20  2  0
 19 33  1  0
 20 21  1  0
 20 53  1  0
 21 22  2  0
 21 54  1  0
 22 23  1  0
 22 32  1  0
 23 24  1  0
 24 25  1  0
 24 55  1  0
 24 56  1  0
 25 26  1  0
 25 57  1  0
 25 58  1  0
 26 27  1  0
 26 31  1  0
 27 28  1  0
 27 59  1  0
 27 60  1  0
 28 29  1  0
 28 61  1  0
 28 62  1  0
 29 30  1  0
 30 31  1  0
 30 63  1  0
 30 64  1  0
 31 65  1  0
 31 66  1  0
 32 33  2  0
 32 67  1  0
 33 68  1  0
 34 69  1  0
 35 36  2  0
 35 70  1  0
 37 38  2  0
 37 41  1  0
 38 39  1  0
 39 40  1  0
 40 41  2  0
 41 42  1  0
 42 71  1  0
 42 72  1  0
M  END
> <Mol2_MolInfo_Name>
12541

> <Mol2_MolInfo_Type>
SMALL

> <Mol2_MolInfo_Charge>
USER_CHARGES

> <Mol2_Substructures>
     1 UNK         1 GROUP             0       ****    0 ROOT    

> <Name>
12541

$$$$
12581
  SciTegic06232017502D

 30 31  0  0  0  0            999 V2000
   -2.9040   -2.3823    0.0000 O   0  0
   -2.1881   -1.2147    0.0000 C   0  0
   -2.8558    0.0087    0.0000 C   0  0
   -2.1279    1.1971    0.0000 C   0  0
   -2.7829    2.3997    0.0000 O   0  0
   -0.7327    1.1606    0.0000 C   0  0
   -0.0463   -0.0605    0.0000 C   0  0
    1.4338   -0.0385    0.0000 C   0  0
    2.2617   -1.1057    0.0000 C   0  0
    3.7419   -1.0817    0.0000 C   0  0
    4.4311   -2.3003    0.0000 C   0  0
    5.8252   -2.3338    0.0000 C   0  0
    6.5557   -1.1459    0.0000 C   0  0
    7.9269   -1.2039    0.0000 O   0  0
    5.8822    0.0816    0.0000 C   0  0
    6.5734    1.2674    0.0000 O   0  0
    4.4855    0.1085    0.0000 C   0  0
   -0.7922   -1.2497    0.0000 C   0  0
   -2.3471   -3.1638    0.0000 H   0  0
   -3.9363    0.0357    0.0000 H   0  0
   -2.1864    3.1513    0.0000 H   0  0
   -0.1812    2.0903    0.0000 H   0  0
    1.8688    0.9494    0.0000 H   0  0
    1.8268   -2.0939    0.0000 H   0  0
    3.8882   -3.2349    0.0000 H   0  0
    6.3350   -3.2864    0.0000 H   0  0
    8.2655   -2.1020    0.0000 H   0  0
    6.0013    2.0379    0.0000 H   0  0
    3.9914    1.0680    0.0000 H   0  0
   -0.3016   -2.2110    0.0000 H   0  0
  1  2  1  0
  1 19  1  0
  2  3  2  0
  2 18  1  0
  3  4  1  0
  3 20  1  0
  4  5  1  0
  4  6  2  0
  5 21  1  0
  6  7  1  0
  6 22  1  0
  7  8  1  0
  7 18  2  0
  8  9  2  0
  8 23  1  0
  9 10  1  0
  9 24  1  0
 10 11  2  0
 10 17  1  0
 11 12  1  0
 11 25  1  0
 12 13  2  0
 12 26  1  0
 13 14  1  0
 13 15  1  0
 14 27  1  0
 15 16  1  0
 15 17  2  0
 16 28  1  0
 17 29  1  0
 18 30  1  0
M  END
> <Mol2_MolInfo_Name>
12581

> <Mol2_MolInfo_Type>
SMALL

> <Mol2_MolInfo_Charge>
USER_CHARGES

> <Mol2_Substructures>
     1 UNK         1 GROUP             0       ****    0 ROOT    

> <Name>
12581

$$$$
12609
  SciTegic06232017503D

  9  8  0  0  0  0            999 V2000
   -0.4959   -1.1214   -0.4842 O   0  5
   -0.0414   -0.0308   -0.0677 C   0  0
   -0.6738    1.0193    0.1872 O   0  0
    1.4469    0.0354    0.1492 C   0  0
    2.0559   -0.9966    0.4411 O   0  0
    2.1917    1.3625   -0.0222 C   0  0
    2.2010    1.9002   -1.9414 Br  0  0
    1.7166    2.1552    0.5561 H   0  0
    3.2271    1.2682    0.3054 H   0  0
  1  2  1  0
  2  3  2  0
  2  4  1  0
  4  5  2  0
  4  6  1  0
  6  7  1  0
  6  8  1  0
  6  9  1  0
M  CHG  1   1  -1
M  END
> <Mol2_MolInfo_Name>
12609

> <Mol2_MolInfo_Type>
SMALL

> <Mol2_MolInfo_Charge>
USER_CHARGES

> <Mol2_Substructures>
     1 UNK         1 GROUP             0       ****    0 ROOT    

> <Name>
12609

$$$$
12640
  SciTegic06232017503D

 38 40  0  0  0  0            999 V2000
   -3.6322   -2.6968    0.8192 F   0  0
   -2.4933   -2.6358    0.1268 C   0  0  1  0  0  0
   -1.6239   -3.4773    0.6895 F   0  0
   -2.7299   -3.0477   -1.1185 F   0  0
   -1.9580   -1.2051    0.0824 C   0  0
   -0.5850   -0.9482    0.1726 C   0  0
   -0.0948    0.3599    0.1387 C   0  0
    1.3053    0.5052    0.2142 N   0  0
    2.1307    1.4946    0.6746 C   0  0
    1.6469    2.8766    1.5012 S   0  0
    3.4344    1.1854    0.4045 N   0  0
    4.6158    1.8892    0.6965 C   0  0
    4.8495    3.1195    0.0678 C   0  0
    6.0161    3.8328    0.3302 C   0  0
    6.9606    3.3185    1.2144 C   0  0
    8.5552    4.2931    1.5754 Br  0  0
    6.7412    2.0873    1.8307 C   0  0
    5.5762    1.3462    1.5780 C   0  0
    5.4203    0.0172    2.2716 C   0  0
    5.7005   -0.1590    3.5447 N   0  0
    5.4342   -1.4840    3.7968 N   0  0
    5.0010   -2.0511    2.6275 N   0  0
    5.0066   -1.0728    1.6620 N   0  0
   -0.9963    1.4225   -0.0232 C   0  0
   -2.3727    1.1862   -0.1117 C   0  0
   -2.8433   -0.1304   -0.0536 C   0  0
   -3.3439    2.3543   -0.2797 C   0  0  2  0  0  0
   -4.5617    2.0534    0.1753 F   0  0
   -3.4400    2.6531   -1.5749 F   0  0
   -2.9159    3.4351    0.3752 F   0  0
    0.1079   -1.7724    0.2729 H   0  0
    1.7898   -0.3343   -0.0688 H   0  0
    3.5978    0.2541    0.0498 H   0  0
    4.1249    3.5282   -0.6219 H   0  0
    6.1862    4.7835   -0.1535 H   0  0
    7.4921    1.7024    2.5058 H   0  0
   -0.6425    2.4374   -0.1127 H   0  0
   -3.9038   -0.3244   -0.1301 H   0  0
  1  2  1  0
  2  3  1  0
  2  4  1  0
  2  5  1  0
  5  6  2  0
  5 26  1  0
  6  7  1  0
  6 31  1  0
  7  8  1  0
  7 24  2  0
  8  9  1  0
  8 32  1  0
  9 10  2  0
  9 11  1  0
 11 12  1  0
 11 33  1  0
 12 13  2  0
 12 18  1  0
 13 14  1  0
 13 34  1  0
 14 15  2  0
 14 35  1  0
 15 16  1  0
 15 17  1  0
 17 18  2  0
 17 36  1  0
 18 19  1  0
 19 20  1  0
 19 23  2  0
 20 21  1  0
 21 22  2  0
 22 23  1  0
 24 25  1  0
 24 37  1  0
 25 26  2  0
 25 27  1  0
 26 38  1  0
 27 28  1  0
 27 29  1  0
 27 30  1  0
M  END
> <Mol2_MolInfo_Name>
12640

> <Mol2_MolInfo_Type>
SMALL

> <Mol2_MolInfo_Charge>
USER_CHARGES

> <Mol2_Substructures>
     1 UNK         1 GROUP             0       ****    0 ROOT    

> <Name>
12640

$$$$
12644
  SciTegic06232017503D

 36 38  0  0  0  0            999 V2000
   -1.7525    1.5617    0.0438 C   0  0
   -0.2539    1.3286   -0.1023 C   0  0
    0.4752    2.1985   -0.5877 O   0  0
    0.1077    0.0919    0.3532 O   0  0
    1.4925   -0.1716    0.2293 N   0  0
    1.7422   -1.1940   -0.4990 C   0  0
    3.1217   -1.6061   -0.7368 C   0  0
    4.1344   -1.0676   -0.2816 O   0  0
    3.0677   -2.6858   -1.5488 N   0  0
    4.2779   -3.4050   -1.9720 C   0  0
    4.6388   -4.6766   -1.1932 C   0  0
    3.9192   -5.0739   -0.0547 C   0  0
    4.2618   -6.2362    0.6359 C   0  0
    3.3611   -6.7086    2.0303 Cl  0  0
    5.3308   -7.0157    0.1989 C   0  0
    6.0564   -6.6312   -0.9267 C   0  0
    5.7171   -5.4690   -1.6221 C   0  0
    6.6537   -5.0398   -3.0131 Cl  0  0
    1.7631   -3.0373   -1.8377 C   0  0
    1.2849   -4.0931   -2.6184 C   0  0
   -0.0924   -4.2508   -2.7753 C   0  0
   -0.9740   -3.3601   -2.1577 C   0  0
   -2.6772   -3.5599   -2.3523 Cl  0  0
   -0.4793   -2.3085   -1.3813 C   0  0
    0.9032   -2.1484   -1.2210 C   0  0
   -2.3089    0.8176   -0.5268 H   0  0
   -2.0267    2.5516   -0.3220 H   0  0
   -2.0465    1.4885    1.0909 H   0  0
    4.1441   -3.6848   -3.0175 H   0  0
    5.1429   -2.7400   -1.9420 H   0  0
    3.0876   -4.4874    0.3068 H   0  0
    5.6003   -7.9172    0.7296 H   0  0
    6.8851   -7.2391   -1.2597 H   0  0
    1.9582   -4.7878   -3.0987 H   0  0
   -0.4737   -5.0639   -3.3754 H   0  0
   -1.1827   -1.6360   -0.9142 H   0  0
  1  2  1  0
  1 26  1  0
  1 27  1  0
  1 28  1  0
  2  3  2  0
  2  4  1  0
  4  5  1  0
  5  6  2  0
  6  7  1  0
  6 25  1  0
  7  8  2  0
  7  9  1  0
  9 10  1  0
  9 19  1  0
 10 11  1  0
 10 29  1  0
 10 30  1  0
 11 12  2  0
 11 17  1  0
 12 13  1  0
 12 31  1  0
 13 14  1  0
 13 15  2  0
 15 16  1  0
 15 32  1  0
 16 17  2  0
 16 33  1  0
 17 18  1  0
 19 20  2  0
 19 25  1  0
 20 21  1  0
 20 34  1  0
 21 22  2  0
 21 35  1  0
 22 23  1  0
 22 24  1  0
 24 25  2  0
 24 36  1  0
M  END
> <Mol2_MolInfo_Name>
12644

> <Mol2_MolInfo_Type>
SMALL

> <Mol2_MolInfo_Charge>
USER_CHARGES

> <Mol2_Substructures>
     1 UNK         1 GROUP             0       ****    0 ROOT    

> <Name>
12644

$$$$
12663
  SciTegic06232017502D

 32 34  0  0  0  0            999 V2000
   -0.5339    0.9385    0.0000 O   0  0
    0.0669   -0.1405    0.0000 C   0  0
    1.5389   -0.1513    0.0000 C   0  0
    2.2874    0.9757    0.0000 C   0  0
    3.7648    1.0423    0.0000 C   0  0
    4.3917    2.2900    0.0000 C   0  0
    5.7830    2.3593    0.0000 C   0  0
    6.5389    1.1624    0.0000 C   0  0
    7.9549    1.1502    0.0000 C   0  0
    8.6424   -0.0615    0.0000 C   0  0
    7.9510   -1.2699    0.0000 C   0  0
    6.5578   -1.2909    0.0000 C   0  0
    5.8292   -0.0765    0.0000 C   0  0
    4.4680   -0.1235    0.0000 N   0  0
   -0.7039   -1.4372    0.0000 C   0  0
   -0.0884   -2.7039    0.0000 C   0  0
   -0.8834   -3.8519    0.0000 C   0  0
   -2.2381   -3.8147    0.0000 N   0  0
   -2.8312   -2.5963    0.0000 C   0  0
   -2.1108   -1.4008    0.0000 C   0  0
    2.0387   -1.1046    0.0000 H   0  0
    1.7880    1.9356    0.0000 H   0  0
    3.8107    3.2012    0.0000 H   0  0
    6.2868    3.3151    0.0000 H   0  0
    8.4974    2.0848    0.0000 H   0  0
    9.7225   -0.0635    0.0000 H   0  0
    8.5003   -2.1998    0.0000 H   0  0
    6.0282   -2.2333    0.0000 H   0  0
    0.9812   -2.8374    0.0000 H   0  0
   -0.4313   -4.8328    0.0000 H   0  0
   -3.9112   -2.5874    0.0000 H   0  0
   -2.6527   -0.4654    0.0000 H   0  0
  1  2  2  0
  2  3  1  0
  2 15  1  0
  3  4  2  0
  3 21  1  0
  4  5  1  0
  4 22  1  0
  5  6  2  0
  5 14  1  0
  6  7  1  0
  6 23  1  0
  7  8  2  0
  7 24  1  0
  8  9  1  0
  8 13  1  0
  9 10  2  0
  9 25  1  0
 10 11  1  0
 10 26  1  0
 11 12  2  0
 11 27  1  0
 12 13  1  0
 12 28  1  0
 13 14  2  0
 15 16  2  0
 15 20  1  0
 16 17  1  0
 16 29  1  0
 17 18  2  0
 17 30  1  0
 18 19  1  0
 19 20  2  0
 19 31  1  0
 20 32  1  0
M  END
> <Mol2_MolInfo_Name>
12663

> <Mol2_MolInfo_Type>
SMALL

> <Mol2_MolInfo_Charge>
USER_CHARGES

> <Mol2_Substructures>
     1 UNK         1 GROUP             0       ****    0 ROOT    

> <Name>
12663

$$$$
12667
  SciTegic06232017502D

 24 25  0  0  0  0            999 V2000
   -0.6553    1.3184    0.0000 C   0  0
   -0.0330    0.1239    0.0000 C   0  0
    1.4322   -0.0202    0.0000 C   0  0
    2.1388    0.9929    0.0000 O   0  0
    2.0676   -1.3905    0.0000 C   0  0
    3.4667   -1.4874    0.0000 C   0  0
    4.1172   -2.7173    0.0000 C   0  0
    3.3748   -3.9185    0.0000 C   0  0
    4.0059   -5.1877    0.0000 C   0  0
    3.2422   -6.3521    0.0000 C   0  0
    1.8528   -6.2857    0.0000 C   0  0
    1.2030   -5.0540    0.0000 C   0  0
    1.9502   -3.8485    0.0000 C   0  0
    1.3187   -2.5792    0.0000 C   0  0
   -0.1161    2.2556    0.0000 H   0  0
   -1.7342    1.3716    0.0000 H   0  0
   -0.6447   -0.7614    0.0000 H   0  0
    4.0823   -0.5988    0.0000 H   0  0
    5.1971   -2.7579    0.0000 H   0  0
    5.0847   -5.2472    0.0000 H   0  0
    3.7325   -7.3145    0.0000 H   0  0
    1.2736   -7.1974    0.0000 H   0  0
    0.1233   -5.0131    0.0000 H   0  0
    0.2408   -2.5782    0.0000 H   0  0
  1  2  2  0
  1 15  1  0
  1 16  1  0
  2  3  1  0
  2 17  1  0
  3  4  2  0
  3  5  1  0
  5  6  2  0
  5 14  1  0
  6  7  1  0
  6 18  1  0
  7  8  2  0
  7 19  1  0
  8  9  1  0
  8 13  1  0
  9 10  2  0
  9 20  1  0
 10 11  1  0
 10 21  1  0
 11 12  2  0
 11 22  1  0
 12 13  1  0
 12 23  1  0
 13 14  2  0
 14 24  1  0
M  END
> <Mol2_MolInfo_Name>
12667

> <Mol2_MolInfo_Type>
SMALL

> <Mol2_MolInfo_Charge>
USER_CHARGES

> <Mol2_Substructures>
     1 UNK         1 GROUP             0       ****    0 ROOT    

> <Name>
12667

$$$$
12705
  SciTegic06232017503D

 28 30  0  0  0  0            999 V2000
   -2.0682    1.4244   -0.1144 C   0  0
   -0.5247    1.4432   -0.0899 C   0  0
   -0.0056    0.0774   -0.1305 N   0  0
   -0.5235   -0.6842   -1.2656 C   0  0
   -2.0671   -0.6542   -1.2647 C   0  0
   -2.5288    0.6945   -1.2491 O   0  0
    1.7635   -0.0344    0.0728 S   0  0
    1.8532   -0.9076    1.5885 C   0  0
    1.8713   -2.2088    1.6691 N   0  0
    1.9111   -2.6309    2.9603 C   0  0
    1.9382   -3.9738    3.3679 C   0  0
    1.9746   -4.2514    4.7355 C   0  0
    1.9842   -3.2279    5.6832 C   0  0
    1.9594   -1.8857    5.3026 C   0  0
    1.9227   -1.5953    3.9319 C   0  0
    1.8817   -0.0435    3.1091 S   0  0
   -2.4709    0.9946    0.8051 H   0  0
   -2.4519    2.4428   -0.1754 H   0  0
   -0.1387    2.0111   -0.9380 H   0  0
   -0.1736    1.9376    0.8166 H   0  0
   -0.1367   -0.2685   -2.1973 H   0  0
   -0.1719   -1.7147   -1.2014 H   0  0
   -2.4490   -1.1432   -2.1611 H   0  0
   -2.4706   -1.2058   -0.4133 H   0  0
    1.9304   -4.7772    2.6458 H   0  0
    1.9954   -5.2792    5.0678 H   0  0
    2.0110   -3.4801    6.7332 H   0  0
    1.9674   -1.0990    6.0429 H   0  0
  1  2  1  0
  1  6  1  0
  1 17  1  0
  1 18  1  0
  2  3  1  0
  2 19  1  0
  2 20  1  0
  3  4  1  0
  3  7  1  0
  4  5  1  0
  4 21  1  0
  4 22  1  0
  5  6  1  0
  5 23  1  0
  5 24  1  0
  7  8  1  0
  8  9  2  0
  8 16  1  0
  9 10  1  0
 10 11  2  0
 10 15  1  0
 11 12  1  0
 11 25  1  0
 12 13  2  0
 12 26  1  0
 13 14  1  0
 13 27  1  0
 14 15  2  0
 14 28  1  0
 15 16  1  0
M  END
> <Mol2_MolInfo_Name>
12705

> <Mol2_MolInfo_Type>
SMALL

> <Mol2_MolInfo_Charge>
USER_CHARGES

> <Mol2_Substructures>
     1 UNK         1 GROUP             0       ****    0 ROOT    

> <Name>
12705

$$$$
12766
  SciTegic06232017503D

 76 80  0  0  0  0            999 V2000
   -8.4718    4.2044   -1.8137 C   0  0
   -6.9736    4.1522   -1.5393 C   0  0
   -6.0876    5.2156   -1.5627 C   0  0
   -6.3728    6.6503   -1.7974 C   0  0
   -7.5223    7.2927   -1.5301 C   0  0
   -4.8331    4.6832   -1.2987 C   0  0
   -3.6343    5.4009   -1.2293 C   0  0
   -2.3470    4.9161   -0.9880 C   0  0
   -2.0306    3.6253   -0.7773 N   0  0
   -0.6980    3.5457   -0.6016 C   0  0
    0.0008    2.3606   -0.3591 C   0  0
   -0.5148    1.0657   -0.2537 C   0  0
   -1.8211    0.7441   -0.3502 N   0  0
   -1.9297   -0.5880   -0.1792 C   0  0
   -3.1258   -1.3082   -0.2037 C   0  0
   -4.4200   -0.8219   -0.4017 C   0  0
   -4.7385    0.4660   -0.6253 N   0  0
   -6.0736    0.5442   -0.7850 C   0  0
   -6.7531    1.7290   -1.0835 C   0  0
   -6.2356    3.0193   -1.2334 C   0  0
   -4.9373    3.3537   -1.1021 N   0  0
   -6.6285   -0.7212   -0.6336 C   0  0
   -8.0416   -1.1542   -0.6767 C   0  0
   -9.1043   -0.4542   -0.2460 C   0  0
   -5.5748   -1.5836   -0.3991 C   0  0
   -5.6554   -3.0871   -0.1675 C   0  0
   -0.6733   -1.1294    0.0283 C   0  0
   -0.3439   -2.5948    0.2755 C   0  0
    0.2256   -0.0844   -0.0337 C   0  0
    1.7376   -0.1993    0.1191 C   0  0
    2.1885   -0.0735    1.5932 C   0  0
    3.6967   -0.3019    1.7984 C   0  0
    4.0873   -0.3599    2.9847 O   0  0
    4.4387   -0.4127    0.7961 O   0  5
   -0.1490    4.8132   -0.7048 C   0  0
    1.3190    5.2025   -0.5856 C   0  0
    1.7111    5.5553    0.8682 C   0  0
    3.1447    6.0972    1.0065 C   0  0
    3.4697    6.5062    2.1425 O   0  0
    3.8935    6.1042    0.0035 O   0  5
   -1.1963    5.6826   -0.9339 C   0  0
   -1.0998    7.1920   -1.1029 C   0  0
   -8.8363    3.2747   -2.2492 H   0  0
   -8.7129    4.9928   -2.5263 H   0  0
   -9.0204    4.3898   -0.8899 H   0  0
   -5.5795    7.2286   -2.2473 H   0  0
   -8.3691    6.7979   -1.0793 H   0  0
   -7.6290    8.3432   -1.7581 H   0  0
   -3.7069    6.4659   -1.3893 H   0  0
    1.0691    2.4577   -0.2349 H   0  0
   -2.5804    1.3875   -0.5115 H   0  0
   -3.0381   -2.3738   -0.0496 H   0  0
   -7.8165    1.6360   -1.2275 H   0  0
   -4.1804    2.7239   -0.8840 H   0  0
   -8.2265   -2.1237   -1.1168 H   0  0
   -9.0074    0.5187    0.2122 H   0  0
  -10.1020   -0.8576   -0.3408 H   0  0
   -6.6719   -3.4142    0.0490 H   0  0
   -5.0346   -3.3810    0.6790 H   0  0
   -5.3071   -3.6226   -1.0508 H   0  0
    0.6608   -2.7222    0.6782 H   0  0
   -0.4126   -3.1586   -0.6550 H   0  0
   -1.0376   -3.0304    0.9948 H   0  0
    2.0551   -1.1562   -0.2982 H   0  0
    2.2234    0.5587   -0.4967 H   0  0
    1.9357    0.9171    1.9738 H   0  0
    1.6491   -0.7968    2.2067 H   0  0
    1.9451    4.3944   -0.9664 H   0  0
    1.5042    6.0491   -1.2487 H   0  0
    1.0271    6.3088    1.2621 H   0  0
    1.6118    4.6734    1.5024 H   0  0
   -0.1581    7.5823   -0.7173 H   0  0
   -1.9023    7.6951   -0.5632 H   0  0
   -1.1736    7.4584   -2.1575 H   0  0
   -2.6771    2.8511   -0.7598 H   0  0
   -4.0882    1.2350   -0.6861 H   0  0
  1  2  1  0
  1 43  1  0
  1 44  1  0
  1 45  1  0
  2  3  2  0
  2 20  1  0
  3  4  1  0
  3  6  1  0
  4  5  2  0
  4 46  1  0
  5 47  1  0
  5 48  1  0
  6  7  2  0
  6 21  1  0
  7  8  1  0
  7 49  1  0
  8  9  1  0
  8 41  2  0
  9 10  1  0
  9 75  1  0
 10 11  1  0
 10 35  2  0
 11 12  2  0
 11 50  1  0
 12 13  1  0
 12 29  1  0
 13 14  1  0
 13 51  1  0
 14 15  2  0
 14 27  1  0
 15 16  1  0
 15 52  1  0
 16 17  1  0
 16 25  2  0
 17 18  1  0
 17 76  1  0
 18 19  1  0
 18 22  2  0
 19 20  2  0
 19 53  1  0
 20 21  1  0
 21 54  1  0
 22 23  1  0
 22 25  1  0
 23 24  2  0
 23 55  1  0
 24 56  1  0
 24 57  1  0
 25 26  1  0
 26 58  1  0
 26 59  1  0
 26 60  1  0
 27 28  1  0
 27 29  2  0
 28 61  1  0
 28 62  1  0
 28 63  1  0
 29 30  1  0
 30 31  1  0
 30 64  1  0
 30 65  1  0
 31 32  1  0
 31 66  1  0
 31 67  1  0
 32 33  2  0
 32 34  1  0
 35 36  1  0
 35 41  1  0
 36 37  1  0
 36 68  1  0
 36 69  1  0
 37 38  1  0
 37 70  1  0
 37 71  1  0
 38 39  2  0
 38 40  1  0
 41 42  1  0
 42 72  1  0
 42 73  1  0
 42 74  1  0
M  CHG  2  34  -1  40  -1
M  END
> <Mol2_MolInfo_Name>
12766

> <Mol2_MolInfo_Type>
SMALL

> <Mol2_MolInfo_Charge>
USER_CHARGES

> <Mol2_Substructures>
     1 UNK         1 GROUP             0       ****    0 ROOT    

> <Name>
12766

$$$$
98
  SciTegic06232017503D

 37 39  0  0  0  0            999 V2000
   -4.2383    0.1773   -0.3142 O   0  0
   -2.8747    0.1016   -0.2119 C   0  0
   -2.1057    1.2525   -0.3704 C   0  0
   -0.7196    1.1777   -0.2630 C   0  0
   -0.0971   -0.0465    0.0079 C   0  0
   -0.8806   -1.1990    0.1572 C   0  0
   -2.2668   -1.1245    0.0502 C   0  0
    1.4374   -0.1148    0.1101 C   0  0  2  0  0  0
    2.0070   -1.3466   -0.6391 C   0  0
    3.3964   -1.0997   -1.2447 N   0  3
    4.5473   -0.7376   -0.2952 C   0  0
    4.2753    0.5323    0.5297 C   0  0
    3.3643    0.3274    1.7510 C   0  0
    3.8612    0.4216    3.0714 C   0  0
    5.5468    0.7654    3.3526 Cl  0  0
    3.0111    0.2311    4.1740 C   0  0
    3.4630    0.3186    5.3640 O   0  5
    1.6598   -0.0614    3.9620 C   0  0
    0.7794   -0.2595    5.0012 O   0  0
    1.1749   -0.1643    2.6650 C   0  0
    1.9967    0.0192    1.5439 C   0  0
   -4.6725   -0.6685   -0.1819 H   0  0
   -2.5788    2.2021   -0.5749 H   0  0
   -0.1330    2.0769   -0.3841 H   0  0
   -0.4195   -2.1528    0.3675 H   0  0
   -2.8632   -2.0171    0.1724 H   0  0
    1.7713    0.7679   -0.4371 H   0  0
    2.1082   -2.2332   -0.0110 H   0  0
    1.4222   -1.6030   -1.5236 H   0  0
    3.6648   -1.9302   -1.7536 H   0  0
    4.7359   -1.6221    0.3156 H   0  0
    5.3821   -0.5969   -0.9826 H   0  0
    5.2425    0.9214    0.8383 H   0  0
    3.8823    1.3285   -0.1030 H   0  0
   -0.1144   -0.4480    4.7073 H   0  0
    0.1286   -0.3991    2.5414 H   0  0
    3.3086   -0.3551   -1.9216 H   0  0
  1  2  1  0
  1 22  1  0
  2  3  2  0
  2  7  1  0
  3  4  1  0
  3 23  1  0
  4  5  2  0
  4 24  1  0
  5  6  1  0
  5  8  1  0
  6  7  2  0
  6 25  1  0
  7 26  1  0
  8  9  1  0
  8 21  1  0
  8 27  1  0
  9 10  1  0
  9 28  1  0
  9 29  1  0
 10 11  1  0
 10 30  1  0
 10 37  1  0
 11 12  1  0
 11 31  1  0
 11 32  1  0
 12 13  1  0
 12 33  1  0
 12 34  1  0
 13 14  2  0
 13 21  1  0
 14 15  1  0
 14 16  1  0
 16 17  1  0
 16 18  2  0
 18 19  1  0
 18 20  1  0
 19 35  1  0
 20 21  2  0
 20 36  1  0
M  CHG  2  10   1  17  -1
M  END
> <Mol2_MolInfo_Name>
98

> <Mol2_MolInfo_Type>
SMALL

> <Mol2_MolInfo_Charge>
USER_CHARGES

> <Mol2_Substructures>
     1 ****        1 GROUP             0       ****    0 ROOT    

> <Name>
98

$$$$
104
  SciTegic06232017503D

 25 27  0  0  0  0            999 V2000
   -0.2839   -2.3633   -0.0095 O   0  0
   -0.7258   -1.2129   -0.0006 C   0  0
    0.0435   -0.0884    0.0158 N   0  0
   -0.9624    1.4895    0.0875 Se  0  0
   -2.4986    0.4932    0.0376 C   0  0
   -3.8179    0.9465    0.0425 C   0  0
   -4.8595    0.0192    0.0084 C   0  0
   -4.5775   -1.3472   -0.0266 C   0  0
   -3.2529   -1.7895   -0.0301 C   0  0
   -2.2001   -0.8676   -0.0010 C   0  0
    1.4526   -0.0521    0.0030 C   0  0
    2.1852   -0.8273   -0.9078 C   0  0
    3.5762   -0.7686   -0.9136 C   0  0
    4.2361    0.0655   -0.0146 C   0  0
    3.5181    0.8436    0.8903 C   0  0
    2.1270    0.7868    0.8988 C   0  0
   -4.0455    2.0020    0.0726 H   0  0
   -5.8848    0.3588    0.0107 H   0  0
   -5.3849   -2.0641   -0.0508 H   0  0
   -3.0580   -2.8520   -0.0568 H   0  0
    1.6826   -1.4708   -1.6155 H   0  0
    4.1405   -1.3666   -1.6137 H   0  0
    5.3152    0.1098   -0.0196 H   0  0
    4.0387    1.4872    1.5840 H   0  0
    1.5816    1.3894    1.6105 H   0  0
  1  2  2  0
  2  3  1  0
  2 10  1  0
  3  4  1  0
  3 11  1  0
  4  5  1  0
  5  6  2  0
  5 10  1  0
  6  7  1  0
  6 17  1  0
  7  8  2  0
  7 18  1  0
  8  9  1  0
  8 19  1  0
  9 10  2  0
  9 20  1  0
 11 12  2  0
 11 16  1  0
 12 13  1  0
 12 21  1  0
 13 14  2  0
 13 22  1  0
 14 15  1  0
 14 23  1  0
 15 16  2  0
 15 24  1  0
 16 25  1  0
M  END
> <Mol2_MolInfo_Name>
104

> <Mol2_MolInfo_Type>
SMALL

> <Mol2_MolInfo_Charge>
USER_CHARGES

> <Mol2_Substructures>
     1 ****        1 GROUP             0       ****    0 ROOT    

> <Name>
104

$$$$
118
  SciTegic06232017503D

 44 46  0  0  0  0            999 V2000
   -8.1161   -0.6726    1.3393 C   0  0
   -7.9599   -0.0765    0.0560 O   0  0
   -6.7182    0.3968   -0.3233 C   0  0
   -6.6421    0.9737   -1.5947 C   0  0
   -5.4595    1.4981   -2.1210 C   0  0
   -4.3287    1.4196   -1.3071 C   0  0
   -3.0186    1.8100   -1.4584 N   0  0
   -2.3597    1.4640   -0.3028 C   0  0
   -3.1309    0.8864    0.5839 N   0  0
   -4.3644    0.8426   -0.0130 C   0  0
   -5.5691    0.3261    0.4847 C   0  0
   -0.5704    1.8397   -0.1310 S   0  0  2  0  0  0
   -0.1345    2.3855   -1.4925 O   0  0
    0.0050    0.0774   -0.0479 C   0  0
    1.5268    0.0366   -0.0023 C   0  0
    2.1677    0.0482   -1.1885 N   0  0
    3.5059    0.0246   -1.3139 C   0  0
    4.3064   -0.0013   -0.1694 C   0  0
    5.8180   -0.0734   -0.3234 C   0  0
    3.6902    0.0031    1.0969 C   0  0  2  0  0  0
    4.4507   -0.0271    2.2422 O   0  0
    4.9559    1.2391    2.6491 C   0  0
    2.2832    0.0106    1.1851 C   0  0
    1.5889    0.0071    2.5445 C   0  0
   -9.1526   -0.9837    1.4681 H   0  0
   -7.8816    0.0319    2.1388 H   0  0
   -7.4896   -1.5594    1.4468 H   0  0
   -7.5366    1.0176   -2.1992 H   0  0
   -5.4310    1.9393   -3.1065 H   0  0
   -2.5729    2.2669   -2.2413 H   0  0
   -5.5967   -0.1134    1.4701 H   0  0
   -0.4278   -0.4038    0.8289 H   0  0
   -0.3611   -0.4674   -0.9197 H   0  0
    3.8825    0.0218   -2.3268 H   0  0
    6.2735   -0.6311    0.4958 H   0  0
    6.2520    0.9264   -0.3528 H   0  0
    6.0925   -0.5973   -1.2402 H   0  0
    5.5270    1.1206    3.5699 H   0  0
    4.1480    1.9449    2.8498 H   0  0
    5.6200    1.6774    1.9034 H   0  0
    2.2756    0.1458    3.3793 H   0  0
    1.0525   -0.9304    2.6934 H   0  0
    0.8582    0.8149    2.5959 H   0  0
    1.6096    0.0744   -2.0302 H   0  0
  1  2  1  0
  1 25  1  0
  1 26  1  0
  1 27  1  0
  2  3  1  0
  3  4  2  0
  3 11  1  0
  4  5  1  0
  4 28  1  0
  5  6  2  0
  5 29  1  0
  6  7  1  0
  6 10  1  0
  7  8  1  0
  7 30  1  0
  8  9  2  0
  8 12  1  0
  9 10  1  0
 10 11  2  0
 11 31  1  0
 12 13  2  0
 12 14  1  0
 14 15  1  0
 14 32  1  0
 14 33  1  0
 15 16  1  0
 15 23  2  0
 16 17  1  0
 16 44  1  0
 17 18  2  0
 17 34  1  0
 18 19  1  0
 18 20  1  0
 19 35  1  0
 19 36  1  0
 19 37  1  0
 20 21  1  0
 20 23  1  0
 21 22  1  0
 22 38  1  0
 22 39  1  0
 22 40  1  0
 23 24  1  0
 24 41  1  0
 24 42  1  0
 24 43  1  0
M  END
> <Mol2_MolInfo_Name>
118

> <Mol2_MolInfo_Type>
SMALL

> <Mol2_MolInfo_Charge>
USER_CHARGES

> <Mol2_Substructures>
     1 ****        1 GROUP             0       ****    0 ROOT    

> <Name>
118

$$$$
332
  SciTegic06232017503D

 40 45  0  0  0  0            999 V2000
    0.1325    0.4500    0.7844 C   0  0
    1.5327    0.2111    0.4469 N   0  0
    2.2080    1.2639   -0.1492 C   0  0
    3.5233    1.2254   -0.4279 C   0  0
    4.2352    2.3835   -0.9636 C   0  0
    3.7142    3.5359   -1.3961 O   0  0
    4.8205    4.3012   -1.7953 C   0  0
    5.9884    3.5539   -1.5805 O   0  0
    5.5609    2.3961   -1.0712 C   0  0
    6.3718    1.2618   -0.6517 C   0  0
    5.7741    0.1455   -0.1744 C   0  0
    4.3039    0.0246   -0.0735 C   0  0
    3.6420   -1.0917    0.3549 C   0  0
    4.3456   -2.2308    0.9344 C   0  0
    3.7066   -3.2386    1.5362 C   0  0
    2.2497   -3.3256    1.6232 C   0  0
    1.6989   -4.4191    2.3125 C   0  0
    0.3196   -4.5543    2.3164 C   0  0
   -0.4410   -5.5404    2.8597 O   0  0
   -1.7697   -5.1232    2.6930 C   0  0
   -1.7739   -4.0854    1.7493 O   0  0
   -0.4812   -3.6789    1.6505 C   0  0
    0.0413   -2.5936    0.9594 C   0  0
    1.4326   -2.3535    0.9813 C   0  0
    2.0770   -1.1583    0.2087 C   0  0  1  0  0  0
   -0.0421    1.4955    1.0433 H   0  0
   -0.1670   -0.1290    1.6566 H   0  0
   -0.5157    0.2030   -0.0567 H   0  0
    1.6262    2.1596   -0.3222 H   0  0
    4.7327    4.5597   -2.8516 H   0  0
    4.8597    5.2265   -1.2186 H   0  0
    7.4504    1.2866   -0.7041 H   0  0
    6.4216   -0.6638    0.1223 H   0  0
    5.4226   -2.2774    0.9368 H   0  0
    4.3068   -4.0310    1.9610 H   0  0
    2.3300   -5.1477    2.8008 H   0  0
   -2.3929   -5.9516    2.3550 H   0  0
   -2.1492   -4.7452    3.6443 H   0  0
   -0.6251   -1.9586    0.3991 H   0  0
    1.8868   -1.3649   -0.8458 H   0  0
  1  2  1  0
  1 26  1  0
  1 27  1  0
  1 28  1  0
  2  3  1  0
  2 25  1  0
  3  4  2  0
  3 29  1  0
  4  5  1  0
  4 12  1  0
  5  6  1  0
  5  9  2  0
  6  7  1  0
  7  8  1  0
  7 30  1  0
  7 31  1  0
  8  9  1  0
  9 10  1  0
 10 11  2  0
 10 32  1  0
 11 12  1  0
 11 33  1  0
 12 13  2  0
 13 14  1  0
 13 25  1  0
 14 15  2  0
 14 34  1  0
 15 16  1  0
 15 35  1  0
 16 17  2  0
 16 24  1  0
 17 18  1  0
 17 36  1  0
 18 19  1  0
 18 22  2  0
 19 20  1  0
 20 21  1  0
 20 37  1  0
 20 38  1  0
 21 22  1  0
 22 23  1  0
 23 24  2  0
 23 39  1  0
 24 25  1  0
 25 40  1  0
M  END
> <Mol2_MolInfo_Name>
332

> <Mol2_MolInfo_Type>
SMALL

> <Mol2_MolInfo_Charge>
USER_CHARGES

> <Mol2_Substructures>
     1 ****        1 GROUP             0       ****    0 ROOT    

> <Name>
332

$$$$
348
  SciTegic06232017503D

 40 42  0  0  0  0            999 V2000
    0.2284    2.5515    0.1926 C   0  0
   -0.8093    1.4552   -0.0437 C   0  0
   -0.4136    0.1020   -0.0835 C   0  0
    0.9299   -0.1882    0.0783 O   0  0
    1.3648   -1.5466    0.1116 C   0  0
    2.8775   -1.5940    0.3737 C   0  0  1  0  0  0
    3.3110   -2.8537    0.4091 F   0  0
    3.5574   -0.9615   -0.5826 F   0  0
    3.1875   -1.0291    1.5408 F   0  0
   -1.3982   -0.8829   -0.2924 C   0  0
   -2.7317   -0.5116   -0.4528 C   0  0
   -3.0615    0.7898   -0.4070 N   0  0
   -2.1710    1.7817   -0.2071 C   0  0  2  0  0  0
   -2.7181    3.2064   -0.1766 C   0  0
   -3.1301    3.7680    1.5500 S   0  0  2  0  0  0
   -2.2121    3.0228    2.5212 O   0  0
   -4.7555    2.9284    1.7201 C   0  0
   -4.9815    1.6471    1.8716 N   0  0
   -6.3453    1.5484    1.9619 C   0  0
   -7.1417    0.4059    2.1287 C   0  0
   -8.5261    0.5730    2.1925 C   0  0
   -9.1100    1.8372    2.0940 C   0  0
   -8.3459    2.9954    1.9271 C   0  0
   -6.9599    2.8243    1.8632 C   0  0
   -5.9005    3.6884    1.7099 N   0  0
   -0.1568    3.3173    0.8653 H   0  0
    0.4959    3.0327   -0.7483 H   0  0
    1.1350    2.1753    0.6667 H   0  0
    0.8432   -2.0921    0.9004 H   0  0
    1.1430   -2.0352   -0.8389 H   0  0
   -1.1497   -1.9324   -0.3340 H   0  0
   -3.5456   -1.2035   -0.6144 H   0  0
   -1.9912    3.9011   -0.5971 H   0  0
   -3.6027    3.2987   -0.8088 H   0  0
   -6.7014   -0.5774    2.2080 H   0  0
   -9.1591   -0.2930    2.3219 H   0  0
  -10.1856    1.9217    2.1495 H   0  0
   -8.8106    3.9678    1.8531 H   0  0
   -5.9061    4.6935    1.6099 H   0  0
   -4.0342    1.0391   -0.5157 H   0  0
  1  2  1  0
  1 26  1  0
  1 27  1  0
  1 28  1  0
  2  3  2  0
  2 13  1  0
  3  4  1  0
  3 10  1  0
  4  5  1  0
  5  6  1  0
  5 29  1  0
  5 30  1  0
  6  7  1  0
  6  8  1  0
  6  9  1  0
 10 11  2  0
 10 31  1  0
 11 12  1  0
 11 32  1  0
 12 13  1  0
 12 40  1  0
 13 14  1  0
 14 15  1  0
 14 33  1  0
 14 34  1  0
 15 16  2  0
 15 17  1  0
 17 18  2  0
 17 25  1  0
 18 19  1  0
 19 20  2  0
 19 24  1  0
 20 21  1  0
 20 35  1  0
 21 22  2  0
 21 36  1  0
 22 23  1  0
 22 37  1  0
 23 24  2  0
 23 38  1  0
 24 25  1  0
 25 39  1  0
M  END
> <Mol2_MolInfo_Name>
348

> <Mol2_MolInfo_Type>
SMALL

> <Mol2_MolInfo_Charge>
USER_CHARGES

> <Mol2_Substructures>
     1 ****        1 GROUP             0       ****    0 ROOT    

> <Name>
348

$$$$
402
  SciTegic06232017503D

 43 44  0  0  0  0            999 V2000
   -1.8803   -1.4741    0.2230 C   0  0
   -0.4836   -1.2155    0.2500 O   0  0
    0.0101    0.0007   -0.0899 C   0  0
   -0.7081    0.9438   -0.4328 O   0  0
    1.4963    0.0734   -0.0270 C   0  0
    2.1502    1.2667    0.0711 C   0  0
    1.5526    2.6598    0.2664 C   0  0
    3.5256    1.2991    0.0994 N   0  0
    4.3534    0.2011    0.0450 C   0  0
    3.8218   -1.0514   -0.0551 C   0  0
    2.2820   -1.2647   -0.2008 C   0  0  2  0  0  0
    1.8575   -2.1119   -1.4286 C   0  0
    1.2543   -3.3641   -1.2306 C   0  0
    0.8610   -4.1500   -2.3116 C   0  0
    1.0648   -3.6962   -3.6115 C   0  0
    1.6616   -2.4568   -3.8286 C   0  0
    2.0599   -1.6603   -2.7501 C   0  0
    2.6840   -0.3628   -3.0383 N   0  3
    1.9459    0.6095   -3.1544 O   0  5
    3.9019   -0.3364   -3.1772 O   0  0
    4.6861   -2.2607   -0.1461 C   0  0
    5.8642   -2.2349   -0.5125 O   0  0
    4.0459   -3.4063    0.1952 O   0  0
    4.7095   -4.6614    0.1432 C   0  0
    5.8202    0.5958    0.2151 C   0  0
   -2.0720   -2.5001    0.5370 H   0  0
   -2.2816   -1.3462   -0.7834 H   0  0
   -2.4163   -0.8059    0.8985 H   0  0
    0.5856    2.6401    0.7661 H   0  0
    1.4363    3.1552   -0.6978 H   0  0
    2.1936    3.2856    0.8901 H   0  0
    3.9642    2.2078    0.0619 H   0  0
    1.9888   -1.8919    0.6438 H   0  0
    1.0861   -3.7369   -0.2307 H   0  0
    0.3984   -5.1110   -2.1407 H   0  0
    0.7606   -4.3043   -4.4507 H   0  0
    1.8160   -2.1123   -4.8411 H   0  0
    4.0306   -5.4518    0.4628 H   0  0
    5.5792   -4.6731    0.8017 H   0  0
    5.0392   -4.8868   -0.8720 H   0  0
    6.4148   -0.1795    0.6953 H   0  0
    5.9254    1.4807    0.8456 H   0  0
    6.2614    0.8217   -0.7560 H   0  0
  1  2  1  0
  1 26  1  0
  1 27  1  0
  1 28  1  0
  2  3  1  0
  3  4  2  0
  3  5  1  0
  5  6  2  0
  5 11  1  0
  6  7  1  0
  6  8  1  0
  7 29  1  0
  7 30  1  0
  7 31  1  0
  8  9  1  0
  8 32  1  0
  9 10  2  0
  9 25  1  0
 10 11  1  0
 10 21  1  0
 11 12  1  0
 11 33  1  0
 12 13  2  0
 12 17  1  0
 13 14  1  0
 13 34  1  0
 14 15  2  0
 14 35  1  0
 15 16  1  0
 15 36  1  0
 16 17  2  0
 16 37  1  0
 17 18  1  0
 18 19  1  0
 18 20  2  0
 21 22  2  0
 21 23  1  0
 23 24  1  0
 24 38  1  0
 24 39  1  0
 24 40  1  0
 25 41  1  0
 25 42  1  0
 25 43  1  0
M  CHG  2  18   1  19  -1
M  END
> <Mol2_MolInfo_Name>
402

> <Mol2_MolInfo_Type>
SMALL

> <Mol2_MolInfo_Charge>
USER_CHARGES

> <Mol2_Substructures>
     1 ****        1 GROUP             0       ****    0 ROOT    

> <Name>
402

$$$$
408
  SciTegic06232017503D

 46 49  0  0  0  0            999 V2000
   -2.2640   -4.1621   -1.4666 C   0  0
   -2.1734   -3.7284    0.0118 C   0  0  1  0  0  0
   -0.7253   -3.4293    0.4628 C   0  0
   -0.1989   -2.3168   -0.2569 O   0  0
   -1.0038   -1.1904   -0.2308 C   0  0
   -0.3919    0.0579   -0.4537 C   0  0
    0.9726    0.1285   -0.7372 N   0  0
    1.5217   -0.5300   -1.9349 C   0  0
    1.9071    0.4551   -3.0562 C   0  0
    2.9326    1.4565   -2.4971 N   0  3  1  0  0  0
    3.3832    2.4409   -3.5937 C   0  0
    2.3180    2.2149   -1.3068 C   0  0
    1.8560    1.1974   -0.2370 C   0  0
   -1.2125    1.2001   -0.4653 C   0  0
   -0.7030    2.4294   -0.7097 F   0  0
   -2.5852    1.0998   -0.2429 C   0  0
   -3.2033   -0.1359   -0.0158 C   0  0
   -4.6995   -0.2073    0.2068 C   0  0
   -5.3861    0.8165    0.1900 O   0  0
   -5.2410   -1.5801    0.4381 C   0  0
   -4.3708   -2.6286    0.4411 C   0  0
   -3.0085   -2.5363    0.2351 N   0  0  2  0  0  0
   -2.3922   -1.2854   -0.0143 C   0  0
   -6.7550   -1.9296    0.6907 C   0  0
   -7.0353   -3.1387    0.8644 O   0  0
   -7.5343   -0.9509    0.6903 O   0  5
   -1.6596   -5.0507   -1.6497 H   0  0
   -1.9164   -3.3806   -2.1437 H   0  0
   -3.2902   -4.4061   -1.7439 H   0  0
   -2.5543   -4.5388    0.6355 H   0  0
   -0.7124   -3.2099    1.5326 H   0  0
   -0.0834   -4.2963    0.3037 H   0  0
    2.4011   -1.0841   -1.6031 H   0  0
    0.8161   -1.2580   -2.3370 H   0  0
    2.4162   -0.0724   -3.8642 H   0  0
    1.0571    1.0188   -3.4461 H   0  0
    2.5053    2.9860   -3.9446 H   0  0
    3.8336    1.8478   -4.3907 H   0  0
    4.1190    3.1090   -3.1443 H   0  0
    3.1228    2.8372   -0.9133 H   0  0
    1.5129    2.8398   -1.6946 H   0  0
    1.3943    1.7214    0.6011 H   0  0
    2.7284    0.6748    0.1584 H   0  0
   -3.1711    2.0084   -0.2601 H   0  0
   -4.6983   -3.6445    0.6171 H   0  0
    3.7365    0.9380   -2.1712 H   0  0
  1  2  1  0
  1 27  1  0
  1 28  1  0
  1 29  1  0
  2  3  1  0
  2 22  1  0
  2 30  1  0
  3  4  1  0
  3 31  1  0
  3 32  1  0
  4  5  1  0
  5  6  2  0
  5 23  1  0
  6  7  1  0
  6 14  1  0
  7  8  1  0
  7 13  1  0
  8  9  1  0
  8 33  1  0
  8 34  1  0
  9 10  1  0
  9 35  1  0
  9 36  1  0
 10 11  1  0
 10 12  1  0
 10 46  1  0
 11 37  1  0
 11 38  1  0
 11 39  1  0
 12 13  1  0
 12 40  1  0
 12 41  1  0
 13 42  1  0
 13 43  1  0
 14 15  1  0
 14 16  2  0
 16 17  1  0
 16 44  1  0
 17 18  1  0
 17 23  2  0
 18 19  2  0
 18 20  1  0
 20 21  2  0
 20 24  1  0
 21 22  1  0
 21 45  1  0
 22 23  1  0
 24 25  2  0
 24 26  1  0
M  CHG  2  10   1  26  -1
M  END
> <Mol2_MolInfo_Name>
408

> <Mol2_MolInfo_Type>
SMALL

> <Mol2_MolInfo_Charge>
USER_CHARGES

> <Mol2_Substructures>
     1 ****        1 GROUP             0       ****    0 ROOT    

> <Name>
408

$$$$
408
  SciTegic06232017503D

 47 50  0  0  0  0            999 V2000
   -2.2403   -4.1492   -1.5074 C   0  0
   -2.1740   -3.7292   -0.0235 C   0  0  1  0  0  0
   -0.7344   -3.4268    0.4519 C   0  0
   -0.2012   -2.3127   -0.2597 O   0  0
   -1.0113   -1.1899   -0.2512 C   0  0
   -0.4008    0.0581   -0.4760 C   0  0
    0.9670    0.1308   -0.7414 N   0  0
    1.5343   -0.5273   -1.9307 C   0  0
    1.9353    0.4590   -3.0455 C   0  0
    2.9517    1.4606   -2.4701 N   0  3  1  0  0  0
    3.4187    2.4474   -3.5580 C   0  0
    2.3219    2.2175   -1.2866 C   0  0
    1.8417    1.1993   -0.2255 C   0  0
   -1.2248    1.1971   -0.5095 C   0  0
   -0.7153    2.4255   -0.7588 F   0  0
   -2.6001    1.0941   -0.3053 C   0  0
   -3.2181   -0.1414   -0.0743 C   0  0
   -4.7179   -0.2134    0.1296 C   0  0
   -5.4008    0.8137    0.0910 O   0  0
   -5.2511   -1.5944    0.3690 C   0  0
   -4.3787   -2.6405    0.3900 C   0  0
   -3.0156   -2.5411    0.1966 N   0  0  2  0  0  0
   -2.4023   -1.2883   -0.0526 C   0  0
   -6.6834   -1.8240    0.5867 C   0  0
   -7.5367   -0.9368    0.5982 O   0  0
   -7.0244   -3.1351    0.7821 O   0  0
   -1.6318   -5.0353   -1.6899 H   0  0
   -1.8828   -3.3613   -2.1717 H   0  0
   -3.2615   -4.3914   -1.8041 H   0  0
   -2.5602   -4.5469    0.5875 H   0  0
   -0.7381   -3.2081    1.5220 H   0  0
   -0.0869   -4.2912    0.3017 H   0  0
    2.4091   -1.0814   -1.5864 H   0  0
    0.8355   -1.2563   -2.3434 H   0  0
    2.4563   -0.0677   -3.8463 H   0  0
    1.0907    1.0219   -3.4479 H   0  0
    2.5466    2.9955   -3.9190 H   0  0
    3.8786    1.8570   -4.3515 H   0  0
    4.1493    3.1131   -3.0967 H   0  0
    3.1228    2.8364   -0.8797 H   0  0
    1.5243    2.8459   -1.6848 H   0  0
    1.3666    1.7222    0.6056 H   0  0
    2.7073    0.6758    0.1836 H   0  0
   -3.1876    2.0012   -0.3406 H   0  0
   -4.7001   -3.6572    0.5721 H   0  0
   -7.9676   -3.2459    0.9209 H   0  0
    3.7505    0.9411   -2.1333 H   0  0
  1  2  1  0
  1 27  1  0
  1 28  1  0
  1 29  1  0
  2  3  1  0
  2 22  1  0
  2 30  1  0
  3  4  1  0
  3 31  1  0
  3 32  1  0
  4  5  1  0
  5  6  2  0
  5 23  1  0
  6  7  1  0
  6 14  1  0
  7  8  1  0
  7 13  1  0
  8  9  1  0
  8 33  1  0
  8 34  1  0
  9 10  1  0
  9 35  1  0
  9 36  1  0
 10 11  1  0
 10 12  1  0
 10 47  1  0
 11 37  1  0
 11 38  1  0
 11 39  1  0
 12 13  1  0
 12 40  1  0
 12 41  1  0
 13 42  1  0
 13 43  1  0
 14 15  1  0
 14 16  2  0
 16 17  1  0
 16 44  1  0
 17 18  1  0
 17 23  2  0
 18 19  2  0
 18 20  1  0
 20 21  2  0
 20 24  1  0
 21 22  1  0
 21 45  1  0
 22 23  1  0
 24 25  2  0
 24 26  1  0
 26 46  1  0
M  CHG  1  10   1
M  END
> <Mol2_MolInfo_Name>
408

> <Mol2_MolInfo_Type>
SMALL

> <Mol2_MolInfo_Charge>
USER_CHARGES

> <Mol2_Substructures>
     1 ****        1 GROUP             0       ****    0 ROOT    

> <Name>
408

$$$$
445
  SciTegic06232017503D

 46 48  0  0  0  0            999 V2000
   -6.6960   -2.4762    0.0012 C   0  0
   -6.2620   -1.0074    0.0036 C   0  0
   -4.8416   -0.9357    0.0029 O   0  0
   -4.2001    0.2604    0.0098 C   0  0
   -4.7824    1.3487    0.0230 O   0  0
   -2.7078    0.1266   -0.0052 C   0  0
   -2.0559   -1.1196   -0.0078 C   0  0
   -0.6611   -1.1818   -0.0217 C   0  0
    0.0565    0.0157   -0.0320 C   0  0
   -0.5409    1.2337   -0.0302 N   0  0
   -1.8983    1.2735   -0.0171 C   0  0
    1.5101    0.0239   -0.0411 C   0  0
    2.7319    0.0183   -0.0359 C   0  0
    4.1874    0.0062   -0.0099 C   0  0
    4.8855    1.1240    0.4389 C   0  0
    6.2753    1.1046    0.4623 C   0  0
    6.9782   -0.0286    0.0491 C   0  0
    8.7448    0.0289    0.1092 S   0  0
    8.9626   -1.6084    0.8478 C   0  0
    8.2259   -2.7644    0.1299 C   0  0
    7.0996   -2.4176   -0.9033 C   0  0  1  0  0  0
    7.7192   -2.1012   -2.2894 C   0  0
    6.2074   -3.6846   -1.0143 C   0  0
    6.2979   -1.1788   -0.4144 C   0  0
    4.8908   -1.1237   -0.4343 C   0  0
   -7.7830   -2.5584   -0.0007 H   0  0
   -6.3248   -2.9988    0.8834 H   0  0
   -6.3215   -2.9966   -0.8809 H   0  0
   -6.6609   -0.5006   -0.8766 H   0  0
   -6.6620   -0.5026    0.8844 H   0  0
   -2.6126   -2.0456    0.0011 H   0  0
   -0.1591   -2.1390   -0.0236 H   0  0
   -2.3285    2.2652   -0.0157 H   0  0
    4.3623    2.0106    0.7692 H   0  0
    6.8087    1.9778    0.8089 H   0  0
   10.0347   -1.8026    0.8895 H   0  0
    8.6236   -1.5289    1.8819 H   0  0
    8.9622   -3.4174   -0.3418 H   0  0
    7.7997   -3.3769    0.9273 H   0  0
    8.2670   -2.9590   -2.6814 H   0  0
    8.4169   -1.2661   -2.2760 H   0  0
    6.9453   -1.8577   -3.0187 H   0  0
    6.8019   -4.5680   -1.2522 H   0  0
    5.4662   -3.5912   -1.8091 H   0  0
    5.6756   -3.8947   -0.0850 H   0  0
    4.3222   -1.9705   -0.7883 H   0  0
  1  2  1  0
  1 26  1  0
  1 27  1  0
  1 28  1  0
  2  3  1  0
  2 29  1  0
  2 30  1  0
  3  4  1  0
  4  5  2  0
  4  6  1  0
  6  7  2  0
  6 11  1  0
  7  8  1  0
  7 31  1  0
  8  9  2  0
  8 32  1  0
  9 10  1  0
  9 12  1  0
 10 11  2  0
 11 33  1  0
 12 13  3  0
 13 14  1  0
 14 15  2  0
 14 25  1  0
 15 16  1  0
 15 34  1  0
 16 17  2  0
 16 35  1  0
 17 18  1  0
 17 24  1  0
 18 19  1  0
 19 20  1  0
 19 36  1  0
 19 37  1  0
 20 21  1  0
 20 38  1  0
 20 39  1  0
 21 22  1  0
 21 23  1  0
 21 24  1  0
 22 40  1  0
 22 41  1  0
 22 42  1  0
 23 43  1  0
 23 44  1  0
 23 45  1  0
 24 25  2  0
 25 46  1  0
M  END
> <Mol2_MolInfo_Name>
445

> <Mol2_MolInfo_Type>
SMALL

> <Mol2_MolInfo_Charge>
USER_CHARGES

> <Mol2_Substructures>
     1 ****        1 GROUP             0       ****    0 ROOT    

> <Name>
445

$$$$
458
  SciTegic06232017503D

 40 42  0  0  0  0            999 V2000
   -2.5620    0.4424   -0.1150 C   0  0
   -0.8844    1.2893    0.0256 S   0  0
   -0.6570    2.1207   -1.1613 O   0  0
   -0.7370    1.8586    1.3693 O   0  0
    0.2404   -0.0774   -0.0801 N   0  0
    1.6385    0.0438   -0.0295 C   0  0
    2.2702    1.2839    0.1230 C   0  0
    3.6598    1.3642    0.1628 C   0  0
    4.2051    2.6223    0.3154 O   0  0
    5.5571    2.7355    0.3376 C   0  0
    6.4400    1.7097    0.2269 C   0  0
    7.8096    1.8455    0.2685 N   0  0
    8.5711    2.9575    0.1721 C   0  0
    8.1737    4.1097    0.0025 O   0  0
    5.9549    0.3206    0.0870 C   0  0
    6.6740   -0.6785    0.0004 O   0  0
    4.4575    0.2144    0.0496 C   0  0
    3.8178   -1.0224   -0.1009 C   0  0
    2.4192   -1.1174   -0.1296 C   0  0
    1.7999   -2.3393   -0.3050 O   0  0
    2.1570   -3.4361    0.4520 C   0  0
    2.5331   -3.3322    1.7987 C   0  0
    2.8606   -4.4761    2.5217 C   0  0
    2.8014   -5.7229    1.9037 C   0  0
    2.4133   -5.8366    0.5706 C   0  0
    2.0865   -4.6921   -0.1520 C   0  0
   -3.3432    1.2006   -0.0697 H   0  0
   -2.6759   -0.2590    0.7110 H   0  0
   -2.6131   -0.0882   -1.0654 H   0  0
   -0.1443   -1.0041   -0.1905 H   0  0
    1.6989    2.1956    0.2096 H   0  0
    5.8264    3.7722    0.4677 H   0  0
    8.3096    0.9727    0.3665 H   0  0
    9.6355    2.6885    0.2566 H   0  0
    4.4024   -1.9266   -0.2006 H   0  0
    2.5700   -2.3691    2.2861 H   0  0
    3.1549   -4.3972    3.5579 H   0  0
    3.0537   -6.6107    2.4647 H   0  0
    2.3641   -6.8076    0.1003 H   0  0
    1.7825   -4.7789   -1.1850 H   0  0
  1  2  1  0
  1 27  1  0
  1 28  1  0
  1 29  1  0
  2  3  2  0
  2  4  2  0
  2  5  1  0
  5  6  1  0
  5 30  1  0
  6  7  2  0
  6 19  1  0
  7  8  1  0
  7 31  1  0
  8  9  1  0
  8 17  2  0
  9 10  1  0
 10 11  2  0
 10 32  1  0
 11 12  1  0
 11 15  1  0
 12 13  1  0
 12 33  1  0
 13 14  2  0
 13 34  1  0
 15 16  2  0
 15 17  1  0
 17 18  1  0
 18 19  2  0
 18 35  1  0
 19 20  1  0
 20 21  1  0
 21 22  2  0
 21 26  1  0
 22 23  1  0
 22 36  1  0
 23 24  2  0
 23 37  1  0
 24 25  1  0
 24 38  1  0
 25 26  2  0
 25 39  1  0
 26 40  1  0
M  END
> <Mol2_MolInfo_Name>
458

> <Mol2_MolInfo_Type>
SMALL

> <Mol2_MolInfo_Charge>
USER_CHARGES

> <Mol2_Substructures>
     1 ****        1 GROUP             0       ****    0 ROOT    

> <Name>
458

$$$$
511
  SciTegic06232017503D

 49 49  0  0  0  0            999 V2000
   -0.6429   -1.4562   -0.3083 C   0  0
   -0.0488   -0.0524   -0.3024 C   0  0
   -0.7969    1.0734   -0.1952 C   0  0
   -2.2426    1.1496   -0.0475 C   0  0
   -2.9082    2.3208    0.0039 C   0  0
   -4.3525    2.4645    0.1522 C   0  0
   -5.1854    1.6236   -0.5161 C   0  0
   -6.7271    1.6177   -0.4992 C   0  0
   -7.2262    0.4752   -0.5953 O   0  0
   -7.2786    2.7407   -0.4735 O   0  5
   -4.8422    3.5307    1.1268 C   0  0
    1.4001    0.0537   -0.4203 C   0  0
    2.1782    0.8849    0.3043 C   0  0
    3.6324    0.9899    0.1681 C   0  0
    4.4462   -0.0939    0.3657 C   0  0
    3.9438   -1.4891    0.7383 C   0  0
    5.9658   -0.0425    0.1904 C   0  0
    6.5215    1.3822    0.2761 C   0  0
    5.6946    2.3220   -0.6007 C   0  0
    4.1967    2.3990   -0.1795 C   0  0  2  0  0  0
    4.0717    3.2830    1.0868 C   0  0
    3.4200    2.9846   -1.3878 C   0  0
   -0.3186   -2.0069    0.5753 H   0  0
   -0.2394   -2.0054   -1.1599 H   0  0
   -1.7259   -1.5011   -0.4011 H   0  0
   -0.2745    2.0206   -0.2177 H   0  0
   -2.8198    0.2418    0.0332 H   0  0
   -2.3339    3.2342   -0.0652 H   0  0
   -4.7347    0.8703   -1.1471 H   0  0
   -4.1966    3.5332    2.0061 H   0  0
   -5.8433    3.3469    1.5150 H   0  0
   -4.7755    4.5244    0.6833 H   0  0
    1.8834   -0.5874   -1.1443 H   0  0
    1.7017    1.5326    1.0258 H   0  0
    4.5222   -1.8841    1.5740 H   0  0
    4.0676   -2.1685   -0.1053 H   0  0
    2.9016   -1.5215    1.0503 H   0  0
    6.4689   -0.6819    0.9172 H   0  0
    6.2179   -0.4756   -0.7787 H   0  0
    6.5169    1.7254    1.3112 H   0  0
    7.5647    1.3924   -0.0424 H   0  0
    6.1435    3.3168   -0.6017 H   0  0
    5.7775    1.9700   -1.6315 H   0  0
    4.5259    4.2625    0.9320 H   0  0
    4.5556    2.8331    1.9545 H   0  0
    3.0293    3.4643    1.3510 H   0  0
    3.8444    3.9385   -1.7040 H   0  0
    2.3737    3.1781   -1.1472 H   0  0
    3.4434    2.3157   -2.2495 H   0  0
  1  2  1  0
  1 23  1  0
  1 24  1  0
  1 25  1  0
  2  3  2  0
  2 12  1  0
  3  4  1  0
  3 26  1  0
  4  5  2  0
  4 27  1  0
  5  6  1  0
  5 28  1  0
  6  7  2  0
  6 11  1  0
  7  8  1  0
  7 29  1  0
  8  9  2  0
  8 10  1  0
 11 30  1  0
 11 31  1  0
 11 32  1  0
 12 13  2  0
 12 33  1  0
 13 14  1  0
 13 34  1  0
 14 15  2  0
 14 20  1  0
 15 16  1  0
 15 17  1  0
 16 35  1  0
 16 36  1  0
 16 37  1  0
 17 18  1  0
 17 38  1  0
 17 39  1  0
 18 19  1  0
 18 40  1  0
 18 41  1  0
 19 20  1  0
 19 42  1  0
 19 43  1  0
 20 21  1  0
 20 22  1  0
 21 44  1  0
 21 45  1  0
 21 46  1  0
 22 47  1  0
 22 48  1  0
 22 49  1  0
M  CHG  1  10  -1
M  END
> <Mol2_MolInfo_Name>
511

> <Mol2_MolInfo_Type>
SMALL

> <Mol2_MolInfo_Charge>
USER_CHARGES

> <Mol2_Substructures>
     1 ****        1 GROUP             0       ****    0 ROOT    

> <Name>
511

$$$$
604
  SciTegic06232017503D

 53 54  0  0  0  0            999 V2000
   -3.7762   -0.9414   -4.7827 C   0  0
   -3.2518   -0.1527   -3.5769 C   0  0
   -3.3178   -0.9677   -2.2692 C   0  0
   -2.6829   -0.2804   -1.0548 C   0  0
   -2.3926    0.9192   -1.0617 O   0  0
   -2.4886   -1.1617   -0.0345 O   0  0
   -1.8700   -0.6819    1.1271 C   0  0
   -0.4689   -0.7092    1.0381 O   0  0
    0.2051    0.4821    0.9963 C   0  0
   -0.3370    1.5841    1.1267 O   0  0
    1.6664    0.3143    0.7521 C   0  0
    2.5524    1.3150    1.0279 C   0  0
    2.2890    2.6472    1.7307 C   0  0
    3.8894    1.1443    0.7593 N   0  0
    4.4556    0.0151    0.2188 C   0  0
    3.6731   -1.0567   -0.0971 C   0  0
    2.1155   -1.0093    0.0476 C   0  0  2  0  0  0
    1.3834   -1.2610   -1.2963 C   0  0
    1.5484   -0.3094   -2.3121 C   0  0
    0.9383   -0.4694   -3.5523 C   0  0
    0.1546   -1.5910   -3.7989 C   0  0
   -0.0319   -2.5497   -2.8046 C   0  0
   -1.0174   -3.9252   -3.1693 Cl  0  0
    0.5692   -2.3899   -1.5456 C   0  0
    0.2848   -3.5932   -0.3257 Cl  0  0
    4.2531   -2.2834   -0.7126 C   0  0
    5.3277   -2.3044   -1.3194 O   0  0
    3.4724   -3.3796   -0.5624 O   0  0
    3.8523   -4.6349   -1.1084 C   0  0
    5.9793    0.1276    0.1597 C   0  0
   -3.7262   -0.3418   -5.6919 H   0  0
   -4.8150   -1.2404   -4.6397 H   0  0
   -3.1868   -1.8438   -4.9493 H   0  0
   -2.2243    0.1556   -3.7768 H   0  0
   -3.8302    0.7666   -3.4709 H   0  0
   -4.3576   -1.1951   -2.0330 H   0  0
   -2.8207   -1.9258   -2.4150 H   0  0
   -2.2983    0.2702    1.4525 H   0  0
   -2.1265   -1.3974    1.9085 H   0  0
    2.0667    3.4216    0.9961 H   0  0
    3.1534    2.9744    2.3114 H   0  0
    1.4644    2.5917    2.4397 H   0  0
    4.4946    1.9393    0.9051 H   0  0
    1.8255   -1.8317    0.6983 H   0  0
    2.1613    0.5636   -2.1397 H   0  0
    1.0772    0.2736   -4.3237 H   0  0
   -0.3143   -1.7127   -4.7644 H   0  0
    3.0951   -5.3830   -0.8740 H   0  0
    4.8036   -4.9716   -0.6938 H   0  0
    3.9471   -4.5764   -2.1934 H   0  0
    6.4809   -0.8343    0.2539 H   0  0
    6.3660    0.7410    0.9755 H   0  0
    6.2851    0.5891   -0.7796 H   0  0
  1  2  1  0
  1 31  1  0
  1 32  1  0
  1 33  1  0
  2  3  1  0
  2 34  1  0
  2 35  1  0
  3  4  1  0
  3 36  1  0
  3 37  1  0
  4  5  2  0
  4  6  1  0
  6  7  1  0
  7  8  1  0
  7 38  1  0
  7 39  1  0
  8  9  1  0
  9 10  2  0
  9 11  1  0
 11 12  2  0
 11 17  1  0
 12 13  1  0
 12 14  1  0
 13 40  1  0
 13 41  1  0
 13 42  1  0
 14 15  1  0
 14 43  1  0
 15 16  2  0
 15 30  1  0
 16 17  1  0
 16 26  1  0
 17 18  1  0
 17 44  1  0
 18 19  2  0
 18 24  1  0
 19 20  1  0
 19 45  1  0
 20 21  2  0
 20 46  1  0
 21 22  1  0
 21 47  1  0
 22 23  1  0
 22 24  2  0
 24 25  1  0
 26 27  2  0
 26 28  1  0
 28 29  1  0
 29 48  1  0
 29 49  1  0
 29 50  1  0
 30 51  1  0
 30 52  1  0
 30 53  1  0
M  END
> <Mol2_MolInfo_Name>
604

> <Mol2_MolInfo_Type>
SMALL

> <Mol2_MolInfo_Charge>
USER_CHARGES

> <Mol2_Substructures>
     1 ****        1 GROUP             0       ****    0 ROOT    

> <Name>
604

$$$$
617
  SciTegic06232017503D

 38 41  0  0  0  0            999 V2000
   -0.0221   -0.3314   -0.0069 C   0  0
    1.4847   -0.0044    0.0526 N   0  3  1  0  0  0
    1.9415    0.6459   -1.2648 C   0  0
    3.4751    0.6765   -1.2336 C   0  0
    3.9691    1.5036   -0.0573 C   0  0
    5.1147    2.2926   -0.1821 C   0  0
    5.5282    3.1228    0.8507 C   0  0
    4.7936    3.1777    2.0276 C   0  0
    3.6578    2.3763    2.2078 C   0  0
    3.2461    1.5246    1.1552 C   0  0
    1.9308    0.7392    1.3489 C   0  0  1  0  0  0
    0.8864    1.7213    1.9415 C   0  0
    1.4138    2.2063    3.2916 C   0  0
    0.5620    2.3289    4.3926 C   0  0
    1.0521    2.6880    5.6420 C   0  0
    2.4144    2.9042    5.8182 C   0  0
    2.8767    3.2214    7.0720 O   0  0
    3.2908    2.7869    4.7311 C   0  0
    4.6358    2.9458    4.9643 O   0  0
    2.7952    2.4750    3.4444 C   0  0
   -0.5697    0.6028   -0.1394 H   0  0
   -0.2810   -0.8324    0.9267 H   0  0
   -0.1716   -1.0008   -0.8550 H   0  0
    1.6053   -0.0062   -2.0726 H   0  0
    1.4706    1.6271   -1.3514 H   0  0
    3.8704   -0.3380   -1.1601 H   0  0
    3.8507    1.0838   -2.1735 H   0  0
    5.6790    2.2831   -1.1033 H   0  0
    6.4015    3.7466    0.7285 H   0  0
    5.1092    3.8814    2.7817 H   0  0
    2.0876   -0.0894    2.0425 H   0  0
    0.7314    2.5688    1.2716 H   0  0
   -0.0837    1.2456    2.0848 H   0  0
   -0.4944    2.1312    4.2817 H   0  0
    0.3720    2.7740    6.4773 H   0  0
    2.1795    3.2664    7.7305 H   0  0
    4.8283    3.1310    5.8868 H   0  0
    1.9503   -0.9008    0.0805 H   0  0
  1  2  1  0
  1 21  1  0
  1 22  1  0
  1 23  1  0
  2  3  1  0
  2 11  1  0
  2 38  1  0
  3  4  1  0
  3 24  1  0
  3 25  1  0
  4  5  1  0
  4 26  1  0
  4 27  1  0
  5  6  2  0
  5 10  1  0
  6  7  1  0
  6 28  1  0
  7  8  2  0
  7 29  1  0
  8  9  1  0
  8 30  1  0
  9 10  2  0
  9 20  1  0
 10 11  1  0
 11 12  1  0
 11 31  1  0
 12 13  1  0
 12 32  1  0
 12 33  1  0
 13 14  2  0
 13 20  1  0
 14 15  1  0
 14 34  1  0
 15 16  2  0
 15 35  1  0
 16 17  1  0
 16 18  1  0
 17 36  1  0
 18 19  1  0
 18 20  2  0
 19 37  1  0
M  CHG  1   2   1
M  END
> <Mol2_MolInfo_Name>
617

> <Mol2_MolInfo_Type>
SMALL

> <Mol2_MolInfo_Charge>
USER_CHARGES

> <Mol2_Substructures>
     1 ****        1 GROUP             0       ****    0 ROOT    

> <Name>
617

$$$$
688
  SciTegic06232017503D

 44 46  0  0  0  0            999 V2000
   -7.6364   -1.0062    2.8785 C   0  0
   -7.7655   -0.2009    1.7117 O   0  0
   -6.6325    0.3375    1.1324 C   0  0
   -6.8374    1.1188   -0.0090 C   0  0
   -5.7944    1.7330   -0.7060 C   0  0
   -4.5078    1.5302   -0.2048 C   0  0
   -3.2581    1.9553   -0.5921 N   0  0
   -2.3594    1.4260    0.3023 C   0  0
   -2.9190    0.6975    1.2361 N   0  0
   -4.2584    0.7438    0.9479 C   0  0
   -5.3292    0.1414    1.6234 C   0  0
   -0.5755    1.8068    0.1068 S   0  0  1  0  0  0
   -0.1387    2.3689    1.4607 O   0  0
    0.0206    0.0505    0.0363 C   0  0
    1.5427    0.0286   -0.0125 C   0  0
    2.1859    0.0591    1.1724 N   0  0
    3.5246    0.0517    1.2949 C   0  0
    4.3230    0.0236    0.1491 C   0  0
    5.8356   -0.0300    0.3012 C   0  0
    3.7041    0.0098   -1.1158 C   0  0  1  0  0  0
    4.4613   -0.0211   -2.2633 O   0  0
    4.9583    1.2467   -2.6758 C   0  0
    2.2969    0.0017   -1.2010 C   0  0
    1.6000   -0.0157   -2.5589 C   0  0
   -8.6239   -1.3423    3.1942 H   0  0
   -7.1990   -0.4455    3.7061 H   0  0
   -7.0315   -1.8938    2.6872 H   0  0
   -7.8465    1.2568   -0.3695 H   0  0
   -5.9830    2.3331   -1.5841 H   0  0
   -2.9967    2.5453   -1.3690 H   0  0
   -5.1395   -0.4560    2.5022 H   0  0
   -0.3320   -0.4933    0.9143 H   0  0
   -0.4106   -0.4432   -0.8343 H   0  0
    3.9036    0.0633    2.3069 H   0  0
    6.2951   -0.5918   -0.5128 H   0  0
    6.1170   -0.5401    1.2233 H   0  0
    6.2585    0.9746    0.3181 H   0  0
    5.5149    1.1308   -3.6057 H   0  0
    5.6333    1.6841   -1.9396 H   0  0
    4.1462    1.9519   -2.8619 H   0  0
    2.2810    0.1480   -3.3940 H   0  0
    0.8482    0.7727   -2.6067 H   0  0
    1.0900   -0.9673   -2.7110 H   0  0
    1.6293    0.0884    2.0151 H   0  0
  1  2  1  0
  1 25  1  0
  1 26  1  0
  1 27  1  0
  2  3  1  0
  3  4  2  0
  3 11  1  0
  4  5  1  0
  4 28  1  0
  5  6  2  0
  5 29  1  0
  6  7  1  0
  6 10  1  0
  7  8  1  0
  7 30  1  0
  8  9  2  0
  8 12  1  0
  9 10  1  0
 10 11  2  0
 11 31  1  0
 12 13  2  0
 12 14  1  0
 14 15  1  0
 14 32  1  0
 14 33  1  0
 15 16  1  0
 15 23  2  0
 16 17  1  0
 16 44  1  0
 17 18  2  0
 17 34  1  0
 18 19  1  0
 18 20  1  0
 19 35  1  0
 19 36  1  0
 19 37  1  0
 20 21  1  0
 20 23  1  0
 21 22  1  0
 22 38  1  0
 22 39  1  0
 22 40  1  0
 23 24  1  0
 24 41  1  0
 24 42  1  0
 24 43  1  0
M  END
> <Mol2_MolInfo_Name>
688

> <Mol2_MolInfo_Type>
SMALL

> <Mol2_MolInfo_Charge>
USER_CHARGES

> <Mol2_Substructures>
     1 ****        1 GROUP             0       ****    0 ROOT    

> <Name>
688

$$$$
882
  SciTegic06232017503D

 97102  0  0  0  0            999 V2000
    1.5368  -10.6528    2.3917 C   0  0
    1.0952   -9.3176    2.1683 O   0  0
    0.6915   -8.5181    3.2284 C   0  0
    0.7088   -8.9968    4.5485 C   0  0
    0.3166   -8.1924    5.6055 C   0  0
   -0.0962   -6.8924    5.3630 C   0  0
   -0.1261   -6.3680    4.0612 C   0  0
   -0.5809   -4.9495    3.8762 C   0  0
   -0.9920   -4.3070    4.8464 O   0  0
   -0.4719   -4.3466    2.4859 C   0  0
   -0.7750   -2.9826    2.2569 C   0  0
   -1.2179   -2.1705    3.2778 O   0  0
   -0.6476   -2.3886    0.9909 C   0  0
   -0.9981   -0.8986    0.7852 C   0  0
   -0.1904   -0.1980   -0.3442 C   0  0  2  0  0  0
   -0.7997    1.0638   -0.5657 O   0  0
   -0.4158   -1.0547   -1.6090 C   0  0
    0.0885   -2.5121   -1.4741 C   0  0  2  0  0  0
   -0.4002   -3.3336   -2.5401 O   0  0
    0.0773   -3.0837   -3.8334 C   0  0  1  0  0  0
   -0.0681   -4.3742   -4.6479 C   0  0
   -1.5533   -4.7103   -4.8560 C   0  0  2  0  0  0
   -1.6278   -5.9013   -5.8220 N   0  3
   -2.3103   -3.5194   -5.4733 C   0  0  1  0  0  0
   -3.6967   -3.7947   -5.5704 O   0  0
   -2.0326   -2.2510   -4.6275 C   0  0  2  0  0  0
   -2.6237   -0.9720   -5.2435 C   0  0
   -0.6206   -2.0365   -4.4676 O   0  0
   -0.1909   -3.1639   -0.0950 C   0  0
    0.1022   -4.5224    0.1255 C   0  0
    0.5997   -5.2282   -0.9475 O   0  0
   -0.0565   -5.1426    1.3900 C   0  0
    0.2031   -6.6332    1.5691 C   0  0
    0.3842   -7.3723    0.5996 O   0  0
    0.2640   -7.1854    2.9744 C   0  0
    1.3284   -0.0263   -0.0256 C   0  0
    1.8357   -0.5562    1.0278 N   0  0
    3.1691   -0.4477    1.1982 N   0  0
    3.7950   -0.9443    2.2819 C   0  0
    3.2248   -1.5541    3.1914 O   0  0
    5.3082   -0.6810    2.3539 C   0  0
    6.1259   -1.7229    3.1562 C   0  0
    6.0793   -3.1736    2.6286 C   0  0
    6.5869   -3.3367    1.1817 C   0  0
    6.7592   -4.8031    0.7347 C   0  0
    5.5176   -5.5940    0.7367 N   0  0
    5.1820   -6.4616    1.7115 C   0  0
    5.8084   -6.7106    2.7418 O   0  0
    3.9426   -7.0333    1.2898 C   0  0
    3.6102   -6.4987    0.1118 C   0  0
    4.6126   -5.5515   -0.2594 C   0  0
    4.6451   -4.8542   -1.2741 O   0  0
    2.1113    0.8122   -1.0620 C   0  0
    2.5661    2.0140   -0.4689 O   0  0
    1.8046  -11.1056    1.4371 H   0  0
    0.7519  -11.2654    2.8375 H   0  0
    2.4226  -10.6800    3.0281 H   0  0
    1.0275  -10.0008    4.7820 H   0  0
    0.3352   -8.5755    6.6150 H   0  0
   -0.3901   -6.2948    6.2147 H   0  0
   -1.3798   -1.2675    2.9969 H   0  0
   -2.0636   -0.8600    0.5497 H   0  0
   -0.8875   -0.3208    1.7044 H   0  0
   -1.7255    0.9255   -0.7783 H   0  0
   -1.4897   -1.0895   -1.8043 H   0  0
    0.0341   -0.5811   -2.4821 H   0  0
    1.1782   -2.5084   -1.5512 H   0  0
    1.1108   -2.7306   -3.8102 H   0  0
    0.4284   -4.2149   -5.6071 H   0  0
    0.4570   -5.1801   -4.1321 H   0  0
   -2.0161   -5.0420   -3.9239 H   0  0
   -1.2049   -5.6608   -6.7070 H   0  0
   -2.5928   -6.1545   -5.9813 H   0  0
   -1.9530   -3.3453   -6.4904 H   0  0
   -4.1096   -3.1098   -6.1023 H   0  0
   -2.4809   -2.3763   -3.6394 H   0  0
   -3.7056   -1.0432   -5.3569 H   0  0
   -2.1972   -0.7706   -6.2266 H   0  0
   -2.4196   -0.1069   -4.6117 H   0  0
    0.6500   -4.6975   -1.7458 H   0  0
    3.6661    0.0480    0.4721 H   0  0
    5.7223   -0.5814    1.3491 H   0  0
    5.4396    0.2953    2.8220 H   0  0
    7.1663   -1.3960    3.1849 H   0  0
    5.7995   -1.7138    4.1976 H   0  0
    6.6823   -3.7979    3.2897 H   0  0
    5.0631   -3.5614    2.7066 H   0  0
    5.9264   -2.8189    0.4852 H   0  0
    7.5558   -2.8439    1.0920 H   0  0
    7.2078   -4.8356   -0.2597 H   0  0
    7.4807   -5.2829    1.3985 H   0  0
    3.3821   -7.7780    1.8357 H   0  0
    2.7335   -6.7335   -0.4713 H   0  0
    2.9678    0.2517   -1.4380 H   0  0
    1.5092    1.0707   -1.9327 H   0  0
    2.8823    1.8243    0.4175 H   0  0
   -1.1418   -6.6974   -5.4337 H   0  0
  1  2  1  0
  1 55  1  0
  1 56  1  0
  1 57  1  0
  2  3  1  0
  3  4  2  0
  3 35  1  0
  4  5  1  0
  4 58  1  0
  5  6  2  0
  5 59  1  0
  6  7  1  0
  6 60  1  0
  7  8  1  0
  7 35  2  0
  8  9  2  0
  8 10  1  0
 10 11  2  0
 10 32  1  0
 11 12  1  0
 11 13  1  0
 12 61  1  0
 13 14  1  0
 13 29  2  0
 14 15  1  0
 14 62  1  0
 14 63  1  0
 15 16  1  0
 15 17  1  0
 15 36  1  0
 16 64  1  0
 17 18  1  0
 17 65  1  0
 17 66  1  0
 18 19  1  0
 18 29  1  0
 18 67  1  0
 19 20  1  0
 20 21  1  0
 20 28  1  0
 20 68  1  0
 21 22  1  0
 21 69  1  0
 21 70  1  0
 22 23  1  0
 22 24  1  0
 22 71  1  0
 23 72  1  0
 23 73  1  0
 23 97  1  0
 24 25  1  0
 24 26  1  0
 24 74  1  0
 25 75  1  0
 26 27  1  0
 26 28  1  0
 26 76  1  0
 27 77  1  0
 27 78  1  0
 27 79  1  0
 29 30  1  0
 30 31  1  0
 30 32  2  0
 31 80  1  0
 32 33  1  0
 33 34  2  0
 33 35  1  0
 36 37  2  0
 36 53  1  0
 37 38  1  0
 38 39  1  0
 38 81  1  0
 39 40  2  0
 39 41  1  0
 41 42  1  0
 41 82  1  0
 41 83  1  0
 42 43  1  0
 42 84  1  0
 42 85  1  0
 43 44  1  0
 43 86  1  0
 43 87  1  0
 44 45  1  0
 44 88  1  0
 44 89  1  0
 45 46  1  0
 45 90  1  0
 45 91  1  0
 46 47  1  0
 46 51  1  0
 47 48  2  0
 47 49  1  0
 49 50  2  0
 49 92  1  0
 50 51  1  0
 50 93  1  0
 51 52  2  0
 53 54  1  0
 53 94  1  0
 53 95  1  0
 54 96  1  0
M  CHG  1  23   1
M  END
> <Mol2_MolInfo_Name>
882

> <Mol2_MolInfo_Type>
SMALL

> <Mol2_MolInfo_Charge>
USER_CHARGES

> <Mol2_Substructures>
     1 ****        1 GROUP             0       ****    0 ROOT    

> <Name>
882

$$$$
882
  SciTegic06232017503D

 97102  0  0  0  0            999 V2000
    0.3247  -10.8324    1.1303 C   0  0
    0.1945   -9.4142    1.1548 O   0  0
    0.0318   -8.7373    2.3555 C   0  0
   -0.0023   -9.4291    3.5773 C   0  0
   -0.1650   -8.7554    4.7756 C   0  0
   -0.2977   -7.3771    4.7749 C   0  0
   -0.2708   -6.6413    3.5792 C   0  0
   -0.4258   -5.1511    3.6626 C   0  0
   -0.5766   -4.6140    4.7636 O   0  0
   -0.3904   -4.3560    2.3688 C   0  0
   -0.5283   -2.9461    2.3791 C   0  0
   -0.7032   -2.2535    3.5573 O   0  0
   -0.5130   -2.1809    1.2023 C   0  0
   -0.6878   -0.6473    1.2727 C   0  0
   -0.1110    0.1388    0.0606 C   0  0  2  0  0  0
   -0.6316    1.4562    0.1420 O   0  0
   -0.7089   -0.5295   -1.1957 C   0  0
   -0.2793   -2.0082   -1.3550 C   0  0  2  0  0  0
   -1.0433   -2.6174   -2.3984 O   0  0
   -0.7009   -2.2913   -3.7181 C   0  0  1  0  0  0
   -0.0336   -3.5120   -4.3702 C   0  0
   -1.0698   -4.6304   -4.5683 C   0  0  2  0  0  0
   -0.4030   -5.7936   -5.3157 N   0  3
   -2.2886   -4.1280   -5.3659 C   0  0  2  0  0  0
   -1.9752   -3.8274   -6.7185 O   0  0
   -2.8496   -2.8841   -4.6294 C   0  0  2  0  0  0
   -4.0619   -2.2428   -5.3264 C   0  0
   -1.8373   -1.8788   -4.4431 O   0  0
   -0.3567   -2.8281   -0.0410 C   0  0
   -0.1748   -4.2234   -0.0526 C   0  0
    0.0761   -4.7961   -1.2785 O   0  0
   -0.2145   -5.0127    1.1255 C   0  0
   -0.0747   -6.5310    1.0577 C   0  0
    0.0530   -7.1125   -0.0218 O   0  0
   -0.1027   -7.3199    2.3491 C   0  0
    1.4479    0.1654   -0.0022 C   0  0
    2.1509   -0.5085    0.8353 N   0  0
    3.4909   -0.4432    0.6933 N   0  0
    4.3422   -1.1219    1.4845 C   0  0
    3.9906   -1.8451    2.4212 O   0  0
    5.8285   -0.9478    1.1328 C   0  0
    6.8165   -1.6261    2.1111 C   0  0
    8.2960   -1.2933    1.8309 C   0  0
    8.8337   -1.8540    0.4970 C   0  0
   10.2924   -1.4589    0.1823 C   0  0
   11.2811   -1.9347    1.1638 N   0  0
   11.8495   -1.1473    2.0972 C   0  0
   11.6383    0.0489    2.2980 O   0  0
   12.7477   -2.0023    2.8080 C   0  0
   12.6807   -3.2255    2.2741 C   0  0
   11.7370   -3.2012    1.2008 C   0  0
   11.4103   -4.1359    0.4688 O   0  0
    2.0208    1.0345   -1.1473 C   0  0
    2.6085    0.2044   -2.1312 O   0  0
    0.4357  -11.1635    0.0979 H   0  0
   -0.5597  -11.3235    1.5393 H   0  0
    1.2082  -11.1639    1.6778 H   0  0
    0.0963  -10.5026    3.6232 H   0  0
   -0.1890   -9.3021    5.7068 H   0  0
   -0.4233   -6.8892    5.7314 H   0  0
   -0.7799   -1.3059    3.4273 H   0  0
   -1.7629   -0.4676    1.3417 H   0  0
   -0.2693   -0.2353    2.1928 H   0  0
   -1.5904    1.4074    0.1454 H   0  0
   -1.7979   -0.5007   -1.1130 H   0  0
   -0.4633    0.0408   -2.0921 H   0  0
    0.7713   -2.0571   -1.6508 H   0  0
   -0.0723   -1.4006   -3.7808 H   0  0
    0.3794   -3.1925   -5.3287 H   0  0
    0.8007   -3.8383   -3.7479 H   0  0
   -1.3823   -5.0473   -3.6091 H   0  0
   -0.0851   -5.4807   -6.2221 H   0  0
   -1.0619   -6.5479   -5.4458 H   0  0
   -3.0521   -4.9070   -5.3969 H   0  0
   -2.7918   -3.6439   -7.1894 H   0  0
   -3.1935   -3.2014   -3.6424 H   0  0
   -4.8505   -2.9743   -5.5050 H   0  0
   -3.7873   -1.8029   -6.2856 H   0  0
   -4.4855   -1.4475   -4.7123 H   0  0
    0.0649   -4.1510   -1.9894 H   0  0
    3.8188    0.1331   -0.0685 H   0  0
    5.9756   -1.3427    0.1271 H   0  0
    6.0413    0.1218    1.0909 H   0  0
    6.5894   -1.3118    3.1316 H   0  0
    6.6800   -2.7088    2.0894 H   0  0
    8.4354   -0.2114    1.8574 H   0  0
    8.8963   -1.6896    2.6508 H   0  0
    8.7317   -2.9399    0.4764 H   0  0
    8.2161   -1.4861   -0.3218 H   0  0
   10.5673   -1.8187   -0.8105 H   0  0
   10.3480   -0.3703    0.1265 H   0  0
   13.3725   -1.6978    3.6347 H   0  0
   13.2417   -4.0931    2.5892 H   0  0
    1.2571    1.6465   -1.6270 H   0  0
    2.7717    1.7285   -0.7680 H   0  0
    2.9543    0.7609   -2.8336 H   0  0
    0.3889   -6.1391   -4.7925 H   0  0
  1  2  1  0
  1 55  1  0
  1 56  1  0
  1 57  1  0
  2  3  1  0
  3  4  2  0
  3 35  1  0
  4  5  1  0
  4 58  1  0
  5  6  2  0
  5 59  1  0
  6  7  1  0
  6 60  1  0
  7  8  1  0
  7 35  2  0
  8  9  2  0
  8 10  1  0
 10 11  2  0
 10 32  1  0
 11 12  1  0
 11 13  1  0
 12 61  1  0
 13 14  1  0
 13 29  2  0
 14 15  1  0
 14 62  1  0
 14 63  1  0
 15 16  1  0
 15 17  1  0
 15 36  1  0
 16 64  1  0
 17 18  1  0
 17 65  1  0
 17 66  1  0
 18 19  1  0
 18 29  1  0
 18 67  1  0
 19 20  1  0
 20 21  1  0
 20 28  1  0
 20 68  1  0
 21 22  1  0
 21 69  1  0
 21 70  1  0
 22 23  1  0
 22 24  1  0
 22 71  1  0
 23 72  1  0
 23 73  1  0
 23 97  1  0
 24 25  1  0
 24 26  1  0
 24 74  1  0
 25 75  1  0
 26 27  1  0
 26 28  1  0
 26 76  1  0
 27 77  1  0
 27 78  1  0
 27 79  1  0
 29 30  1  0
 30 31  1  0
 30 32  2  0
 31 80  1  0
 32 33  1  0
 33 34  2  0
 33 35  1  0
 36 37  2  0
 36 53  1  0
 37 38  1  0
 38 39  1  0
 38 81  1  0
 39 40  2  0
 39 41  1  0
 41 42  1  0
 41 82  1  0
 41 83  1  0
 42 43  1  0
 42 84  1  0
 42 85  1  0
 43 44  1  0
 43 86  1  0
 43 87  1  0
 44 45  1  0
 44 88  1  0
 44 89  1  0
 45 46  1  0
 45 90  1  0
 45 91  1  0
 46 47  1  0
 46 51  1  0
 47 48  2  0
 47 49  1  0
 49 50  2  0
 49 92  1  0
 50 51  1  0
 50 93  1  0
 51 52  2  0
 53 54  1  0
 53 94  1  0
 53 95  1  0
 54 96  1  0
M  CHG  1  23   1
M  END
> <Mol2_MolInfo_Name>
882

> <Mol2_MolInfo_Type>
SMALL

> <Mol2_MolInfo_Charge>
USER_CHARGES

> <Mol2_Substructures>
     1 ****        1 GROUP             0       ****    0 ROOT    

> <Name>
882

$$$$
1076
  SciTegic06232017503D

 41 44  0  0  0  0            999 V2000
   -0.7585    2.6816    0.0370 N   0  0
   -0.4255    1.5741    0.0115 C   0  0
   -0.0008    0.1641   -0.0209 C   0  0
    1.5330   -0.0329    0.0095 C   0  0  2  0  0  0
    1.9396   -1.5310   -0.0358 C   0  0  2  0  0  0
    3.4575   -1.7886   -0.0237 C   0  0
    3.6640   -3.1822   -0.6295 C   0  0
    2.3917   -3.4991   -1.4280 C   0  0
    1.4912   -2.2642   -1.3101 C   0  0
    2.1104    0.6191    1.1909 N   0  0
    3.1523    1.5092    1.2236 C   0  0
    3.3607    1.8368    2.5561 C   0  0
    2.3758    1.0810    3.2196 C   0  0
    1.6407    0.3472    2.4158 N   0  0
    4.3721    2.7659    3.1440 C   0  0
    4.1365    3.1548    4.4279 N   0  0
    5.0305    4.0016    4.9985 C   0  0
    6.1599    4.5172    4.4462 N   0  0
    6.3649    4.1039    3.1905 C   0  0
    7.4211    4.4423    2.3728 N   0  0
    7.2801    3.8102    1.1607 C   0  0
    6.1274    3.0464    1.1666 C   0  0
    5.5187    3.2216    2.4562 C   0  0
   -0.4761   -0.3456    0.8180 H   0  0
   -0.4213   -0.2702   -0.9277 H   0  0
    1.9490    0.4702   -0.8658 H   0  0
    1.5143   -2.0760    0.8101 H   0  0
    3.9468   -1.0695   -0.6836 H   0  0
    3.9062   -1.6576    0.9620 H   0  0
    4.5547   -3.2133   -1.2588 H   0  0
    3.8039   -3.9208    0.1610 H   0  0
    2.6128   -3.7358   -2.4697 H   0  0
    1.8903   -4.3687   -1.0006 H   0  0
    0.4237   -2.4875   -1.3249 H   0  0
    1.6862   -1.6299   -2.1770 H   0  0
    3.6352    1.8238    0.3112 H   0  0
    2.2117    1.0670    4.2871 H   0  0
    4.8176    4.3031    6.0137 H   0  0
    8.1991    5.0494    2.5866 H   0  0
    8.0236    3.9577    0.3907 H   0  0
    5.7853    2.4424    0.3403 H   0  0
  1  2  3  0
  2  3  1  0
  3  4  1  0
  3 24  1  0
  3 25  1  0
  4  5  1  0
  4 10  1  0
  4 26  1  0
  5  6  1  0
  5  9  1  0
  5 27  1  0
  6  7  1  0
  6 28  1  0
  6 29  1  0
  7  8  1  0
  7 30  1  0
  7 31  1  0
  8  9  1  0
  8 32  1  0
  8 33  1  0
  9 34  1  0
  9 35  1  0
 10 11  1  0
 10 14  1  0
 11 12  2  0
 11 36  1  0
 12 13  1  0
 12 15  1  0
 13 14  2  0
 13 37  1  0
 15 16  2  0
 15 23  1  0
 16 17  1  0
 17 18  2  0
 17 38  1  0
 18 19  1  0
 19 20  1  0
 19 23  2  0
 20 21  1  0
 20 39  1  0
 21 22  2  0
 21 40  1  0
 22 23  1  0
 22 41  1  0
M  END
> <Mol2_MolInfo_Name>
1076

> <Mol2_MolInfo_Type>
SMALL

> <Mol2_MolInfo_Charge>
USER_CHARGES

> <Mol2_Substructures>
     1 ****        1 GROUP             0       ****    0 ROOT    

> <Name>
1076

$$$$
1094
  SciTegic06232017503D

105110  0  0  0  0            999 V2000
  -14.3800   -0.7397    2.1949 C   0  0
  -13.0849   -0.9378    2.7444 O   0  0
  -12.1051   -0.0370    2.5370 C   0  0
  -12.2331    1.0083    1.8936 O   0  0
  -10.9484   -0.4778    3.1724 N   0  0
   -9.6937    0.3004    3.1293 C   0  0  1  0  0  0
   -8.6206   -0.3249    4.0850 C   0  0  2  0  0  0
   -8.1753   -1.7604    3.7211 C   0  0
   -9.0688   -0.2716    5.5580 C   0  0
   -9.0601    0.4241    1.7061 C   0  0
   -9.2886   -0.4706    0.8868 O   0  0
   -8.2506    1.4810    1.4332 N   0  0
   -8.1072    2.6516    2.3118 C   0  0
   -7.0389    3.4869    1.6148 C   0  0
   -7.2431    3.1687    0.1462 C   0  0
   -7.5922    1.6703    0.1237 C   0  0  1  0  0  0
   -6.4008    0.7423   -0.1145 C   0  0
   -6.5447   -0.5648   -0.4939 N   0  0
   -5.2832   -1.0816   -0.5752 C   0  0
   -4.4270   -0.0360   -0.2339 C   0  0
   -5.1329    1.0558    0.0462 N   0  0
   -2.9281   -0.0530   -0.1698 C   0  0
   -2.2382   -1.2628   -0.2971 C   0  0
   -0.8472   -1.2908   -0.2452 C   0  0
   -0.1140   -0.1119   -0.0671 C   0  0
   -0.8076    1.0966    0.0626 C   0  0
   -2.1981    1.1273    0.0131 C   0  0
    1.3759   -0.1406   -0.0225 C   0  0
    2.0784    0.6402    0.9030 C   0  0
    3.4700    0.6205    0.9389 C   0  0
    4.1865   -0.1837    0.0488 C   0  0
    3.4908   -0.9683   -0.8762 C   0  0
    2.0997   -0.9453   -0.9099 C   0  0
    5.6792   -0.1929    0.0973 C   0  0
    6.5846    0.6282    0.7743 C   0  0
    7.8682    0.1881    0.5009 N   0  0
    7.8061   -0.8956   -0.3423 C   0  0  2  0  0  0
    6.4666   -1.1176   -0.5776 N   0  0
    8.9785   -1.7170   -0.8602 C   0  0  2  0  0  0
    9.0121   -1.8055   -2.3910 C   0  0
    9.7195   -3.1186   -2.6588 C   0  0
    9.1861   -4.0516   -1.5756 C   0  0
    8.9674   -3.1361   -0.4448 N   0  0
    8.9554   -3.5242    0.8592 C   0  0
    8.9610   -2.7141    1.7906 O   0  0
    8.8466   -5.0459    1.2047 C   0  0  1  0  0  0
    9.2174   -5.3859    2.5942 N   0  0
   10.5221   -5.2502    3.0583 C   0  0
   11.4931   -4.8577    2.4057 O   0  0
   10.5646   -5.6306    4.3497 O   0  0
   11.7849   -5.5970    5.0765 C   0  0
    7.3862   -5.5246    0.8906 C   0  0  2  0  0  0
    6.2763   -4.8008    1.6880 C   0  0
    7.2341   -7.0501    1.0442 C   0  0
  -15.0326   -1.5655    2.4780 H   0  0
  -14.3400   -0.6961    1.1055 H   0  0
  -14.8260    0.1856    2.5625 H   0  0
  -10.9795   -1.3148    3.7358 H   0  0
   -9.9464    1.2911    3.5122 H   0  0
   -7.7205    0.2904    4.0412 H   0  0
   -9.0216   -2.4469    3.6942 H   0  0
   -7.4625   -2.1462    4.4504 H   0  0
   -7.6841   -1.7992    2.7488 H   0  0
   -9.9533   -0.8849    5.7326 H   0  0
   -9.3067    0.7492    5.8585 H   0  0
   -8.2824   -0.6317    6.2219 H   0  0
   -9.0496    3.2012    2.3356 H   0  0
   -7.8041    2.3903    3.3256 H   0  0
   -7.1208    4.5489    1.8473 H   0  0
   -6.0467    3.1613    1.9324 H   0  0
   -8.0852    3.7485   -0.2361 H   0  0
   -6.3758    3.4257   -0.4634 H   0  0
   -8.3294    1.4955   -0.6622 H   0  0
   -5.1173   -2.1102   -0.8595 H   0  0
   -7.4133   -1.0503   -0.6695 H   0  0
   -2.7723   -2.1913   -0.4354 H   0  0
   -0.3408   -2.2404   -0.3409 H   0  0
   -0.2701    2.0247    0.1942 H   0  0
   -2.7016    2.0782    0.1114 H   0  0
    1.5464    1.2657    1.6050 H   0  0
    3.9839    1.2328    1.6656 H   0  0
    4.0186   -1.5964   -1.5785 H   0  0
    1.5845   -1.5533   -1.6395 H   0  0
    6.4299    1.4741    1.4281 H   0  0
    6.1043   -1.8646   -1.1521 H   0  0
    9.9036   -1.2451   -0.5246 H   0  0
    8.0076   -1.8391   -2.8176 H   0  0
    9.5377   -0.9623   -2.8406 H   0  0
    9.5501   -3.5073   -3.6635 H   0  0
   10.7979   -2.9922   -2.5426 H   0  0
    8.2376   -4.4607   -1.9248 H   0  0
    9.9341   -4.8213   -1.3838 H   0  0
    9.5319   -5.6126    0.5722 H   0  0
    8.5158   -5.7894    3.1976 H   0  0
   11.6159   -5.9367    6.0984 H   0  0
   12.1892   -4.5842    5.1175 H   0  0
   12.5305   -6.2502    4.6206 H   0  0
    7.1788   -5.3308   -0.1620 H   0  0
    6.4233   -4.9099    2.7628 H   0  0
    5.2930   -5.2058    1.4477 H   0  0
    6.2422   -3.7344    1.4635 H   0  0
    7.3762   -7.3685    2.0772 H   0  0
    7.9613   -7.5803    0.4288 H   0  0
    6.2424   -7.3797    0.7330 H   0  0
    8.7174    0.5888    0.8743 H   0  0
  1  2  1  0
  1 55  1  0
  1 56  1  0
  1 57  1  0
  2  3  1  0
  3  4  2  0
  3  5  1  0
  5  6  1  0
  5 58  1  0
  6  7  1  0
  6 10  1  0
  6 59  1  0
  7  8  1  0
  7  9  1  0
  7 60  1  0
  8 61  1  0
  8 62  1  0
  8 63  1  0
  9 64  1  0
  9 65  1  0
  9 66  1  0
 10 11  2  0
 10 12  1  0
 12 13  1  0
 12 16  1  0
 13 14  1  0
 13 67  1  0
 13 68  1  0
 14 15  1  0
 14 69  1  0
 14 70  1  0
 15 16  1  0
 15 71  1  0
 15 72  1  0
 16 17  1  0
 16 73  1  0
 17 18  1  0
 17 21  2  0
 18 19  1  0
 18 75  1  0
 19 20  2  0
 19 74  1  0
 20 21  1  0
 20 22  1  0
 22 23  2  0
 22 27  1  0
 23 24  1  0
 23 76  1  0
 24 25  2  0
 24 77  1  0
 25 26  1  0
 25 28  1  0
 26 27  2  0
 26 78  1  0
 27 79  1  0
 28 29  2  0
 28 33  1  0
 29 30  1  0
 29 80  1  0
 30 31  2  0
 30 81  1  0
 31 32  1  0
 31 34  1  0
 32 33  2  0
 32 82  1  0
 33 83  1  0
 34 35  2  0
 34 38  1  0
 35 36  1  0
 35 84  1  0
 36 37  1  0
 36105  1  0
 37 38  1  0
 37 39  1  0
 38 85  1  0
 39 40  1  0
 39 43  1  0
 39 86  1  0
 40 41  1  0
 40 87  1  0
 40 88  1  0
 41 42  1  0
 41 89  1  0
 41 90  1  0
 42 43  1  0
 42 91  1  0
 42 92  1  0
 43 44  1  0
 44 45  2  0
 44 46  1  0
 46 47  1  0
 46 52  1  0
 46 93  1  0
 47 48  1  0
 47 94  1  0
 48 49  2  0
 48 50  1  0
 50 51  1  0
 51 95  1  0
 51 96  1  0
 51 97  1  0
 52 53  1  0
 52 54  1  0
 52 98  1  0
 53 99  1  0
 53100  1  0
 53101  1  0
 54102  1  0
 54103  1  0
 54104  1  0
M  END
> <Mol2_MolInfo_Name>
1094

> <Mol2_MolInfo_Type>
SMALL

> <Mol2_MolInfo_Charge>
USER_CHARGES

> <Mol2_Substructures>
     1 ****        1 GROUP             0       ****    0 ROOT    

> <Name>
1094

$$$$
1094
  SciTegic06232017503D

105110  0  0  0  0            999 V2000
  -11.8782    4.9094    4.7853 C   0  0
  -10.6727    4.1575    4.7819 O   0  0
   -9.6491    4.5008    3.9763 C   0  0
   -9.6526    5.4655    3.2073 O   0  0
   -8.6150    3.5906    4.1577 N   0  0
   -7.3729    3.6691    3.3718 C   0  0  1  0  0  0
   -6.1215    3.4935    4.3017 C   0  0  2  0  0  0
   -6.0419    4.6065    5.3661 C   0  0
   -4.7708    3.4158    3.5507 C   0  0
   -7.3960    2.5238    2.3159 C   0  0
   -7.2803    1.3640    2.7234 O   0  0
   -7.4901    2.8295    0.9937 N   0  0
   -7.7715    4.1758    0.4750 C   0  0
   -8.2666    3.9008   -0.9416 C   0  0
   -7.5062    2.6588   -1.3592 C   0  0
   -7.4617    1.8126   -0.0808 C   0  0  1  0  0  0
   -6.2708    0.8642   -0.0549 C   0  0  2  0  0  0
   -6.3159   -0.5096   -0.0433 N   0  0
   -5.0258   -1.0085   -0.0017 C   0  0
   -4.1347    0.0667    0.0264 C   0  0
   -4.9350    1.2021   -0.0068 N   0  0
   -2.6433    0.1034    0.0701 C   0  0
   -1.9171   -1.0263   -0.3132 C   0  0
   -0.5257   -1.0083   -0.2863 C   0  0
    0.1680    0.1354    0.1272 C   0  0
   -0.5670    1.2624    0.5162 C   0  0
   -1.9594    1.2490    0.4880 C   0  0
    1.6600    0.1515    0.1472 C   0  0
    2.3687    1.2812   -0.2792 C   0  0
    3.7611    1.2928   -0.2719 C   0  0
    4.4734    0.1722    0.1625 C   0  0
    3.7728   -0.9583    0.5933 C   0  0
    2.3807   -0.9661    0.5861 C   0  0
    5.9673    0.1953    0.1552 C   0  0
    6.8956    1.1528   -0.2507 C   0  0
    8.1502    0.7608   -0.1024 N   0  0
    8.0747   -0.4482    0.4048 C   0  0
    6.7711   -0.8319    0.5800 N   0  0
    9.2535   -1.3668    0.7288 C   0  0  2  0  0  0
   10.6102   -0.6542    0.8563 C   0  0
   11.2259   -0.7643   -0.5242 C   0  0
   10.8066   -2.1517   -0.9993 C   0  0
    9.5277   -2.3814   -0.3106 N   0  0
    8.7565   -3.4890   -0.4746 C   0  0
    7.7469   -3.7022    0.2038 O   0  0
    9.1176   -4.5274   -1.5790 C   0  0  1  0  0  0
    9.5453   -5.7723   -0.9209 N   0  0
   10.8889   -6.1098   -0.8131 C   0  0
   11.8456   -5.4677   -1.2544 O   0  0
   10.9891   -7.2703   -0.1367 O   0  0
   12.2584   -7.8576    0.1132 C   0  0
    7.8604   -4.7879   -2.4798 C   0  0  2  0  0  0
    8.1590   -5.8140   -3.5916 C   0  0
    7.2585   -3.5139   -3.1176 C   0  0
  -12.5856    4.4716    5.4898 H   0  0
  -12.3413    4.9114    3.7974 H   0  0
  -11.6956    5.9424    5.0843 H   0  0
   -8.7456    2.8065    4.7802 H   0  0
   -7.2653    4.6439    2.8938 H   0  0
   -6.2258    2.5589    4.8569 H   0  0
   -5.9713    5.5908    4.9024 H   0  0
   -5.1699    4.4790    6.0084 H   0  0
   -6.9185    4.6074    6.0141 H   0  0
   -4.6236    4.2899    2.9158 H   0  0
   -4.7002    2.5299    2.9196 H   0  0
   -3.9339    3.3698    4.2481 H   0  0
   -8.5540    4.6952    1.0278 H   0  0
   -6.8493    4.7563    0.4246 H   0  0
   -9.3384    3.6937   -0.9258 H   0  0
   -8.1153    4.7504   -1.6084 H   0  0
   -7.9991    2.1383   -2.1812 H   0  0
   -6.5046    2.9403   -1.6911 H   0  0
   -8.3759    1.2180   -0.0357 H   0  0
   -4.8568   -2.0755    0.0106 H   0  0
   -4.5849    2.1489    0.0069 H   0  0
   -2.4239   -1.9220   -0.6423 H   0  0
    0.0126   -1.8913   -0.5990 H   0  0
   -0.0601    2.1571    0.8480 H   0  0
   -2.4990    2.1327    0.7966 H   0  0
    1.8423    2.1573   -0.6292 H   0  0
    4.2795    2.1777   -0.6106 H   0  0
    4.2996   -1.8375    0.9343 H   0  0
    1.8636   -1.8510    0.9281 H   0  0
    6.6633    2.1255   -0.6585 H   0  0
    6.4593   -1.7223    0.9411 H   0  0
    9.0406   -1.8827    1.6670 H   0  0
   10.5322    0.3780    1.2003 H   0  0
   11.2383   -1.1847    1.5744 H   0  0
   10.8014   -0.0030   -1.1812 H   0  0
   12.3079   -0.6293   -0.5311 H   0  0
   10.7077   -2.1656   -2.0851 H   0  0
   11.5401   -2.8897   -0.6723 H   0  0
    9.8976   -4.1520   -2.2417 H   0  0
    8.8506   -6.3376   -0.4550 H   0  0
   12.1347   -8.7759    0.6874 H   0  0
   12.8971   -7.1832    0.6854 H   0  0
   12.7650   -8.1063   -0.8206 H   0  0
    7.0754   -5.2344   -1.8657 H   0  0
    8.9642   -5.4681   -4.2406 H   0  0
    7.2821   -5.9890   -4.2155 H   0  0
    8.4564   -6.7787   -3.1803 H   0  0
    8.0057   -2.9789   -3.7046 H   0  0
    6.8664   -2.8236   -2.3703 H   0  0
    6.4301   -3.7598   -3.7824 H   0  0
   -7.1595   -1.0656   -0.0581 H   0  0
  1  2  1  0
  1 55  1  0
  1 56  1  0
  1 57  1  0
  2  3  1  0
  3  4  2  0
  3  5  1  0
  5  6  1  0
  5 58  1  0
  6  7  1  0
  6 10  1  0
  6 59  1  0
  7  8  1  0
  7  9  1  0
  7 60  1  0
  8 61  1  0
  8 62  1  0
  8 63  1  0
  9 64  1  0
  9 65  1  0
  9 66  1  0
 10 11  2  0
 10 12  1  0
 12 13  1  0
 12 16  1  0
 13 14  1  0
 13 67  1  0
 13 68  1  0
 14 15  1  0
 14 69  1  0
 14 70  1  0
 15 16  1  0
 15 71  1  0
 15 72  1  0
 16 17  1  0
 16 73  1  0
 17 18  1  0
 17 21  1  0
 18 19  1  0
 18105  1  0
 19 20  2  0
 19 74  1  0
 20 21  1  0
 20 22  1  0
 21 75  1  0
 22 23  2  0
 22 27  1  0
 23 24  1  0
 23 76  1  0
 24 25  2  0
 24 77  1  0
 25 26  1  0
 25 28  1  0
 26 27  2  0
 26 78  1  0
 27 79  1  0
 28 29  2  0
 28 33  1  0
 29 30  1  0
 29 80  1  0
 30 31  2  0
 30 81  1  0
 31 32  1  0
 31 34  1  0
 32 33  2  0
 32 82  1  0
 33 83  1  0
 34 35  2  0
 34 38  1  0
 35 36  1  0
 35 84  1  0
 36 37  2  0
 37 38  1  0
 37 39  1  0
 38 85  1  0
 39 40  1  0
 39 43  1  0
 39 86  1  0
 40 41  1  0
 40 87  1  0
 40 88  1  0
 41 42  1  0
 41 89  1  0
 41 90  1  0
 42 43  1  0
 42 91  1  0
 42 92  1  0
 43 44  1  0
 44 45  2  0
 44 46  1  0
 46 47  1  0
 46 52  1  0
 46 93  1  0
 47 48  1  0
 47 94  1  0
 48 49  2  0
 48 50  1  0
 50 51  1  0
 51 95  1  0
 51 96  1  0
 51 97  1  0
 52 53  1  0
 52 54  1  0
 52 98  1  0
 53 99  1  0
 53100  1  0
 53101  1  0
 54102  1  0
 54103  1  0
 54104  1  0
M  END
> <Mol2_MolInfo_Name>
1094

> <Mol2_MolInfo_Type>
SMALL

> <Mol2_MolInfo_Charge>
USER_CHARGES

> <Mol2_Substructures>
     1 ****        1 GROUP             0       ****    0 ROOT    

> <Name>
1094

$$$$
1094
  SciTegic06232017503D

104109  0  0  0  0            999 V2000
  -13.3553    3.4465    4.1559 C   0  0
  -12.3288    2.4777    3.9949 O   0  0
  -11.0341    2.8468    3.9449 C   0  0
  -10.6306    4.0099    4.0284 O   0  0
  -10.2533    1.7085    3.7875 N   0  0
   -8.7872    1.7867    3.6936 C   0  0  1  0  0  0
   -8.1098    0.9781    4.8555 C   0  0  2  0  0  0
   -8.5056    1.5270    6.2411 C   0  0
   -6.5675    0.9071    4.7638 C   0  0
   -8.3713    1.1893    2.3167 C   0  0
   -8.3904   -0.0385    2.1922 O   0  0
   -7.9682    2.0257    1.3223 N   0  0
   -8.1609    3.4833    1.3631 C   0  0
   -8.2421    3.8478   -0.1147 C   0  0
   -7.2938    2.8703   -0.7754 C   0  0
   -7.5243    1.5550   -0.0102 C   0  0  1  0  0  0
   -6.3017    0.6360   -0.0014 C   0  0
   -6.4015   -0.7285    0.0329 N   0  0
   -5.1221   -1.2057    0.0517 C   0  0
   -4.3007   -0.0795    0.0287 C   0  0
   -5.0442    1.0232    0.0040 N   0  0
   -2.8005   -0.0296    0.0247 C   0  0
   -2.0634   -1.2171    0.0790 C   0  0
   -0.6718   -1.1867    0.0582 C   0  0
    0.0158    0.0298   -0.0170 C   0  0
   -0.7234    1.2169   -0.0615 C   0  0
   -2.1149    1.1893   -0.0411 C   0  0
    1.5054    0.0610   -0.0606 C   0  0
    2.2131   -0.8541   -0.8485 C   0  0
    3.6031   -0.8149   -0.9085 C   0  0
    4.3130    0.1420   -0.1792 C   0  0
    3.6135    1.0527    0.6183 C   0  0
    2.2231    1.0112    0.6757 C   0  0
    5.8026    0.1857   -0.2756 C   0  0
    6.7128   -0.4869   -1.0897 C   0  0
    7.9677   -0.1293   -0.8766 N   0  0
    7.9092    0.7671    0.0818 C   0  0
    6.6176    0.9912    0.4792 N   0  0
    9.0942    1.5237    0.6772 C   0  0  2  0  0  0
    9.1809    2.9766    0.1916 C   0  0
   10.1827    2.9310   -0.9445 C   0  0
   11.2185    1.9127   -0.4783 C   0  0
   10.4340    0.9882    0.3529 N   0  0
   10.9004   -0.1757    0.8777 C   0  0
   10.2267   -0.8750    1.6406 O   0  0
   12.3234   -0.6830    0.4933 C   0  0  1  0  0  0
   13.1970   -0.5594    1.6712 N   0  0
   14.0624    0.5182    1.8202 C   0  0
   14.2326    1.4402    1.0180 O   0  0
   14.7001    0.4011    3.0009 O   0  0
   15.6498    1.3748    3.4116 C   0  0
   12.2404   -2.1790    0.0285 C   0  0  2  0  0  0
   13.6242   -2.7301   -0.3717 C   0  0
   11.2433   -2.4352   -1.1256 C   0  0
  -14.3285    2.9556    4.1638 H   0  0
  -13.3462    4.1684    3.3377 H   0  0
  -13.2399    3.9866    5.0968 H   0  0
  -10.6948    0.8016    3.7425 H   0  0
   -8.4234    2.8114    3.7867 H   0  0
   -8.4760   -0.0505    4.8270 H   0  0
   -8.2151    2.5726    6.3476 H   0  0
   -8.0249    0.9653    7.0425 H   0  0
   -9.5811    1.4631    6.4073 H   0  0
   -6.1300    1.9054    4.7362 H   0  0
   -6.2302    0.3725    3.8758 H   0  0
   -6.1458    0.3851    5.6232 H   0  0
   -9.0866    3.7934    1.8484 H   0  0
   -7.2769    3.9637    1.7847 H   0  0
   -9.2581    3.6919   -0.4827 H   0  0
   -7.9899    4.8922   -0.3011 H   0  0
   -7.4979    2.7651   -1.8415 H   0  0
   -6.2721    3.2392   -0.6667 H   0  0
   -8.3375    1.0255   -0.5099 H   0  0
   -4.9212   -2.2664    0.0780 H   0  0
   -7.2529   -1.2721    0.0482 H   0  0
   -2.5605   -2.1740    0.1342 H   0  0
   -0.1287   -2.1195    0.1014 H   0  0
   -0.2213    2.1714   -0.1257 H   0  0
   -2.6541    2.1245   -0.0845 H   0  0
    1.6861   -1.5955   -1.4316 H   0  0
    4.1211   -1.5293   -1.5314 H   0  0
    4.1393    1.8014    1.1925 H   0  0
    1.7040    1.7254    1.2982 H   0  0
    6.4659   -1.2227   -1.8406 H   0  0
    6.3181    1.6423    1.1905 H   0  0
    8.9919    1.5227    1.7640 H   0  0
    8.2201    3.3899   -0.1193 H   0  0
    9.5619    3.6125    0.9929 H   0  0
    9.6945    2.5719   -1.8524 H   0  0
   10.6240    3.9006   -1.1768 H   0  0
   11.6757    1.4258   -1.3399 H   0  0
   11.9755    2.4064    0.1316 H   0  0
   12.7326   -0.1243   -0.3483 H   0  0
   13.0846   -1.2169    2.4291 H   0  0
   16.0630    1.1027    4.3828 H   0  0
   15.1871    2.3588    3.5029 H   0  0
   16.4735    1.4437    2.6991 H   0  0
   11.9094   -2.7894    0.8714 H   0  0
   14.0539   -2.1560   -1.1931 H   0  0
   13.5584   -3.7700   -0.6929 H   0  0
   14.3276   -2.6970    0.4604 H   0  0
   11.4702   -1.8071   -1.9875 H   0  0
   10.2126   -2.2364   -0.8318 H   0  0
   11.2797   -3.4742   -1.4539 H   0  0
  1  2  1  0
  1 55  1  0
  1 56  1  0
  1 57  1  0
  2  3  1  0
  3  4  2  0
  3  5  1  0
  5  6  1  0
  5 58  1  0
  6  7  1  0
  6 10  1  0
  6 59  1  0
  7  8  1  0
  7  9  1  0
  7 60  1  0
  8 61  1  0
  8 62  1  0
  8 63  1  0
  9 64  1  0
  9 65  1  0
  9 66  1  0
 10 11  2  0
 10 12  1  0
 12 13  1  0
 12 16  1  0
 13 14  1  0
 13 67  1  0
 13 68  1  0
 14 15  1  0
 14 69  1  0
 14 70  1  0
 15 16  1  0
 15 71  1  0
 15 72  1  0
 16 17  1  0
 16 73  1  0
 17 18  1  0
 17 21  2  0
 18 19  1  0
 18 75  1  0
 19 20  2  0
 19 74  1  0
 20 21  1  0
 20 22  1  0
 22 23  2  0
 22 27  1  0
 23 24  1  0
 23 76  1  0
 24 25  2  0
 24 77  1  0
 25 26  1  0
 25 28  1  0
 26 27  2  0
 26 78  1  0
 27 79  1  0
 28 29  2  0
 28 33  1  0
 29 30  1  0
 29 80  1  0
 30 31  2  0
 30 81  1  0
 31 32  1  0
 31 34  1  0
 32 33  2  0
 32 82  1  0
 33 83  1  0
 34 35  2  0
 34 38  1  0
 35 36  1  0
 35 84  1  0
 36 37  2  0
 37 38  1  0
 37 39  1  0
 38 85  1  0
 39 40  1  0
 39 43  1  0
 39 86  1  0
 40 41  1  0
 40 87  1  0
 40 88  1  0
 41 42  1  0
 41 89  1  0
 41 90  1  0
 42 43  1  0
 42 91  1  0
 42 92  1  0
 43 44  1  0
 44 45  2  0
 44 46  1  0
 46 47  1  0
 46 52  1  0
 46 93  1  0
 47 48  1  0
 47 94  1  0
 48 49  2  0
 48 50  1  0
 50 51  1  0
 51 95  1  0
 51 96  1  0
 51 97  1  0
 52 53  1  0
 52 54  1  0
 52 98  1  0
 53 99  1  0
 53100  1  0
 53101  1  0
 54102  1  0
 54103  1  0
 54104  1  0
M  END
> <Mol2_MolInfo_Name>
1094

> <Mol2_MolInfo_Type>
SMALL

> <Mol2_MolInfo_Charge>
USER_CHARGES

> <Mol2_Substructures>
     1 ****        1 GROUP             0       ****    0 ROOT    

> <Name>
1094

$$$$
1094
  SciTegic06232017503D

106111  0  0  0  0            999 V2000
  -13.5536    3.8310   -1.5501 C   0  0
  -13.0019    2.5453   -1.7978 O   0  0
  -12.1455    1.9834   -0.9231 C   0  0
  -11.7702    2.5052    0.1300 O   0  0
  -11.7778    0.7292   -1.4011 N   0  0
  -10.8573   -0.1540   -0.6597 C   0  0  1  0  0  0
  -10.7927   -1.5637   -1.3465 C   0  0  2  0  0  0
  -12.1828   -2.2267   -1.4421 C   0  0
   -9.8105   -2.5589   -0.6846 C   0  0
   -9.4131    0.4387   -0.5859 C   0  0
   -8.8172    0.6245   -1.6503 O   0  0
   -8.8548    0.7109    0.6231 N   0  0
   -9.5397    0.5537    1.9137 C   0  0
   -8.4228    0.7649    2.9305 C   0  0
   -7.4895    1.7447    2.2474 C   0  0
   -7.5217    1.3353    0.7677 C   0  0  1  0  0  0
   -6.3215    0.4909    0.3509 C   0  0  2  0  0  0
   -6.3204   -0.7963   -0.1362 N   0  0
   -5.0187   -1.2001   -0.3723 C   0  0
   -4.1610   -0.1534   -0.0267 C   0  0
   -4.9976    0.8693    0.4067 N   0  0
   -2.6700   -0.0535   -0.0576 C   0  0
   -1.9068   -1.1989   -0.2985 C   0  0
   -0.5165   -1.1282   -0.3079 C   0  0
    0.1396    0.0869   -0.0778 C   0  0
   -0.6304    1.2335    0.1503 C   0  0
   -2.0212    1.1659    0.1612 C   0  0
    1.6290    0.1555   -0.0637 C   0  0
    2.3043    1.2194   -0.6735 C   0  0
    3.6952    1.2865   -0.6490 C   0  0
    4.4390    0.2886   -0.0127 C   0  0
    3.7697   -0.7786    0.5949 C   0  0
    2.3797   -0.8426    0.5683 C   0  0
    5.9311    0.3759    0.0153 C   0  0
    6.8040    1.3815   -0.4090 C   0  0
    8.1025    0.9709   -0.1618 N   0  0
    8.0820   -0.2773    0.4160 C   0  0  1  0  0  0
    6.7543   -0.6282    0.5123 N   0  0
    9.2736   -1.1269    0.8345 C   0  0  2  0  0  0
   10.3281   -0.3671    1.6524 C   0  0
   11.4453   -0.0785    0.6692 C   0  0
   11.4664   -1.3070   -0.2350 C   0  0
   10.0562   -1.7172   -0.2705 N   0  0
    9.5232   -2.5835   -1.1724 C   0  0
    8.3345   -2.9153   -1.1574 O   0  0
   10.4239   -3.1847   -2.2983 C   0  0  1  0  0  0
   10.4094   -4.6600   -2.2876 N   0  0
   10.9464   -5.3933   -1.2337 C   0  0
   11.4858   -4.9346   -0.2229 O   0  0
   10.7904   -6.7054   -1.4956 O   0  0
   11.2404   -7.6884   -0.5739 C   0  0
    9.9172   -2.6436   -3.6811 C   0  0  2  0  0  0
   10.7453   -3.1948   -4.8605 C   0  0
    9.8649   -1.1008   -3.7859 C   0  0
  -14.2154    4.1127   -2.3690 H   0  0
  -12.7703    4.5861   -1.4715 H   0  0
  -14.1349    3.8368   -0.6268 H   0  0
  -12.2201    0.3707   -2.2347 H   0  0
  -11.2981   -0.3129    0.3243 H   0  0
  -10.4560   -1.4301   -2.3769 H   0  0
  -12.6194   -2.3710   -0.4534 H   0  0
  -12.1235   -3.2035   -1.9232 H   0  0
  -12.8790   -1.6265   -2.0280 H   0  0
  -10.0344   -2.6868    0.3750 H   0  0
   -8.7748   -2.2326   -0.7710 H   0  0
   -9.8670   -3.5410   -1.1550 H   0  0
  -10.3010    1.3272    2.0241 H   0  0
   -9.9827   -0.4352    2.0369 H   0  0
   -8.7955    1.1162    3.8933 H   0  0
   -7.9031   -0.1779    3.1111 H   0  0
   -7.8748    2.7602    2.3585 H   0  0
   -6.4895    1.7342    2.6836 H   0  0
   -7.5177    2.2434    0.1619 H   0  0
   -4.8200   -2.1897   -0.7572 H   0  0
   -4.6756    1.7694    0.7317 H   0  0
   -2.3828   -2.1530   -0.4725 H   0  0
    0.0510   -2.0286   -0.4947 H   0  0
   -0.1524    2.1847    0.3346 H   0  0
   -2.5858    2.0679    0.3469 H   0  0
    1.7519    2.0009   -1.1750 H   0  0
    4.1873    2.1201   -1.1287 H   0  0
    4.3173   -1.5633    1.0959 H   0  0
    1.8862   -1.6723    1.0534 H   0  0
    6.6172    2.3442   -0.8625 H   0  0
    6.4228   -1.5061    0.8853 H   0  0
    8.9082   -1.9497    1.4518 H   0  0
    9.9428    0.5382    2.1241 H   0  0
   10.6999   -1.0062    2.4554 H   0  0
   11.2044    0.8091    0.0816 H   0  0
   12.4087    0.1047    1.1464 H   0  0
   11.8564   -1.0371   -1.2168 H   0  0
   12.0665   -2.1000    0.2137 H   0  0
   11.4684   -2.8861   -2.2103 H   0  0
   10.0655   -5.1451   -3.1034 H   0  0
   11.0366   -8.6845   -0.9668 H   0  0
   10.7283   -7.5900    0.3846 H   0  0
   12.3146   -7.6041   -0.4033 H   0  0
    8.8977   -3.0024   -3.8398 H   0  0
   11.7978   -2.9266   -4.7628 H   0  0
   10.3900   -2.7988   -5.8124 H   0  0
   10.6835   -4.2812   -4.9258 H   0  0
   10.8405   -0.6605   -3.5782 H   0  0
    9.1470   -0.6635   -3.0917 H   0  0
    9.5656   -0.7840   -4.7854 H   0  0
   -7.1458   -1.3561   -0.2978 H   0  0
    8.9358    1.5009   -0.3746 H   0  0
  1  2  1  0
  1 55  1  0
  1 56  1  0
  1 57  1  0
  2  3  1  0
  3  4  2  0
  3  5  1  0
  5  6  1  0
  5 58  1  0
  6  7  1  0
  6 10  1  0
  6 59  1  0
  7  8  1  0
  7  9  1  0
  7 60  1  0
  8 61  1  0
  8 62  1  0
  8 63  1  0
  9 64  1  0
  9 65  1  0
  9 66  1  0
 10 11  2  0
 10 12  1  0
 12 13  1  0
 12 16  1  0
 13 14  1  0
 13 67  1  0
 13 68  1  0
 14 15  1  0
 14 69  1  0
 14 70  1  0
 15 16  1  0
 15 71  1  0
 15 72  1  0
 16 17  1  0
 16 73  1  0
 17 18  1  0
 17 21  1  0
 18 19  1  0
 18105  1  0
 19 20  2  0
 19 74  1  0
 20 21  1  0
 20 22  1  0
 21 75  1  0
 22 23  2  0
 22 27  1  0
 23 24  1  0
 23 76  1  0
 24 25  2  0
 24 77  1  0
 25 26  1  0
 25 28  1  0
 26 27  2  0
 26 78  1  0
 27 79  1  0
 28 29  2  0
 28 33  1  0
 29 30  1  0
 29 80  1  0
 30 31  2  0
 30 81  1  0
 31 32  1  0
 31 34  1  0
 32 33  2  0
 32 82  1  0
 33 83  1  0
 34 35  2  0
 34 38  1  0
 35 36  1  0
 35 84  1  0
 36 37  1  0
 36106  1  0
 37 38  1  0
 37 39  1  0
 38 85  1  0
 39 40  1  0
 39 43  1  0
 39 86  1  0
 40 41  1  0
 40 87  1  0
 40 88  1  0
 41 42  1  0
 41 89  1  0
 41 90  1  0
 42 43  1  0
 42 91  1  0
 42 92  1  0
 43 44  1  0
 44 45  2  0
 44 46  1  0
 46 47  1  0
 46 52  1  0
 46 93  1  0
 47 48  1  0
 47 94  1  0
 48 49  2  0
 48 50  1  0
 50 51  1  0
 51 95  1  0
 51 96  1  0
 51 97  1  0
 52 53  1  0
 52 54  1  0
 52 98  1  0
 53 99  1  0
 53100  1  0
 53101  1  0
 54102  1  0
 54103  1  0
 54104  1  0
M  END
> <Mol2_MolInfo_Name>
1094

> <Mol2_MolInfo_Type>
SMALL

> <Mol2_MolInfo_Charge>
USER_CHARGES

> <Mol2_Substructures>
     1 ****        1 GROUP             0       ****    0 ROOT    

> <Name>
1094

$$$$
1094
  SciTegic06232017503D

104109  0  0  0  0            999 V2000
  -13.2411    3.4128    4.2520 C   0  0
  -12.2213    2.4507    4.0220 O   0  0
  -10.9322    2.8264    3.9141 C   0  0
  -10.5303    3.9905    3.9914 O   0  0
  -10.1543    1.6936    3.7088 N   0  0
   -8.6940    1.7812    3.5567 C   0  0  1  0  0  0
   -7.9647    0.9704    4.6853 C   0  0  2  0  0  0
   -8.3078    1.5057    6.0900 C   0  0
   -6.4270    0.9117    4.5298 C   0  0
   -8.3279    1.1926    2.1623 C   0  0
   -8.3533   -0.0344    2.0306 O   0  0
   -7.9504    2.0345    1.1629 N   0  0
   -8.1414    3.4915    1.2175 C   0  0
   -8.2256    3.8712   -0.2566 C   0  0
   -7.2867    2.8934   -0.9313 C   0  0
   -7.5220    1.5728   -0.1777 C   0  0  1  0  0  0
   -6.3078    0.6422   -0.1851 C   0  0
   -6.4229   -0.7216   -0.1748 N   0  0
   -5.1496   -1.2135   -0.1417 C   0  0
   -4.3163   -0.0963   -0.1328 C   0  0
   -5.0461    1.0155   -0.1599 N   0  0
   -2.8168   -0.0661   -0.0979 C   0  0
   -2.1025   -1.2403    0.1605 C   0  0
   -0.7107   -1.2274    0.1929 C   0  0
    0.0007   -0.0435   -0.0352 C   0  0
   -0.7179    1.1303   -0.2908 C   0  0
   -2.1098    1.1212   -0.3206 C   0  0
    1.4929   -0.0340   -0.0100 C   0  0
    2.2228   -1.0875   -0.5727 C   0  0
    3.6149   -1.0808   -0.5533 C   0  0
    4.3119   -0.0179    0.0298 C   0  0
    3.5855    1.0377    0.5942 C   0  0
    2.1933    1.0281    0.5740 C   0  0
    5.8132   -0.0247    0.0389 C   0  0
    6.6727   -0.9828   -0.4987 C   0  0
    7.9369   -0.5339   -0.2408 N   0  0
    7.7884    0.6540    0.4203 C   0  0
    6.5195    0.9521    0.5996 N   0  0
    8.9741    1.4897    0.8932 C   0  0  2  0  0  0
    9.5300    1.0392    2.2502 C   0  0
    8.9149    2.0025    3.2463 C   0  0
    8.8819    3.3337    2.5011 C   0  0
    8.7091    2.9287    1.0998 N   0  0
    8.4165    3.7719    0.0749 C   0  0
    8.3255    3.3920   -1.0961 O   0  0
    8.1466    5.2825    0.3657 C   0  0  1  0  0  0
    9.1084    6.1565   -0.3325 N   0  0
   10.4622    6.1727   -0.0114 C   0  0
   11.0178    5.4972    0.8588 O   0  0
   11.0836    7.0677   -0.8035 O   0  0
   12.4800    7.2986   -0.6810 C   0  0
    6.6819    5.6281   -0.0808 C   0  0  2  0  0  0
    6.3212    7.1011    0.2027 C   0  0
    5.5872    4.7184    0.5263 C   0  0
  -14.2111    2.9183    4.3045 H   0  0
  -13.2773    4.1470    3.4458 H   0  0
  -13.0767    3.9394    5.1933 H   0  0
  -10.5926    0.7847    3.6738 H   0  0
   -8.3331    2.8077    3.6409 H   0  0
   -8.3239   -0.0606    4.6649 H   0  0
   -8.0221    2.5530    6.1928 H   0  0
   -7.7892    0.9424    6.8662 H   0  0
   -9.3748    1.4298    6.2998 H   0  0
   -5.9992    1.9135    4.4844 H   0  0
   -6.1225    0.3799    3.6281 H   0  0
   -5.9653    0.3931    5.3702 H   0  0
   -9.0660    3.7941    1.7101 H   0  0
   -7.2577    3.9672    1.6450 H   0  0
   -9.2441    3.7271   -0.6221 H   0  0
   -7.9666    4.9157   -0.4329 H   0  0
   -7.4970    2.7999   -1.9973 H   0  0
   -6.2618    3.2535   -0.8240 H   0  0
   -8.3455    1.0568   -0.6745 H   0  0
   -4.9604   -2.2767   -0.1246 H   0  0
   -7.2804   -1.2556   -0.1769 H   0  0
   -2.6188   -2.1713    0.3420 H   0  0
   -0.1861   -2.1484    0.4018 H   0  0
   -0.1995    2.0597   -0.4767 H   0  0
   -2.6332    2.0440   -0.5244 H   0  0
    1.7128   -1.9190   -1.0368 H   0  0
    4.1441   -1.9105   -0.9982 H   0  0
    4.0929    1.8735    1.0534 H   0  0
    1.6601    1.8537    1.0221 H   0  0
    6.5061   -1.9095   -1.0276 H   0  0
    8.8055   -0.9814   -0.4969 H   0  0
    9.7696    1.4136    0.1494 H   0  0
    9.3059   -0.0022    2.4864 H   0  0
   10.6164    1.1444    2.2584 H   0  0
    7.8972    1.6869    3.4837 H   0  0
    9.4611    2.0645    4.1880 H   0  0
    8.0557    3.9435    2.8680 H   0  0
    9.8314    3.8565    2.6224 H   0  0
    8.2105    5.5257    1.4260 H   0  0
    8.7537    6.8160   -1.0092 H   0  0
   12.7913    8.0671   -1.3885 H   0  0
   13.0471    6.3911   -0.8937 H   0  0
   12.7346    7.6396    0.3236 H   0  0
    6.6169    5.5105   -1.1646 H   0  0
    6.3902    7.3252    1.2675 H   0  0
    5.3038    7.3276   -0.1176 H   0  0
    6.9814    7.7887   -0.3259 H   0  0
    5.6400    4.7109    1.6153 H   0  0
    5.6724    3.6884    0.1813 H   0  0
    4.5900    5.0578    0.2453 H   0  0
  1  2  1  0
  1 55  1  0
  1 56  1  0
  1 57  1  0
  2  3  1  0
  3  4  2  0
  3  5  1  0
  5  6  1  0
  5 58  1  0
  6  7  1  0
  6 10  1  0
  6 59  1  0
  7  8  1  0
  7  9  1  0
  7 60  1  0
  8 61  1  0
  8 62  1  0
  8 63  1  0
  9 64  1  0
  9 65  1  0
  9 66  1  0
 10 11  2  0
 10 12  1  0
 12 13  1  0
 12 16  1  0
 13 14  1  0
 13 67  1  0
 13 68  1  0
 14 15  1  0
 14 69  1  0
 14 70  1  0
 15 16  1  0
 15 71  1  0
 15 72  1  0
 16 17  1  0
 16 73  1  0
 17 18  1  0
 17 21  2  0
 18 19  1  0
 18 75  1  0
 19 20  2  0
 19 74  1  0
 20 21  1  0
 20 22  1  0
 22 23  2  0
 22 27  1  0
 23 24  1  0
 23 76  1  0
 24 25  2  0
 24 77  1  0
 25 26  1  0
 25 28  1  0
 26 27  2  0
 26 78  1  0
 27 79  1  0
 28 29  2  0
 28 33  1  0
 29 30  1  0
 29 80  1  0
 30 31  2  0
 30 81  1  0
 31 32  1  0
 31 34  1  0
 32 33  2  0
 32 82  1  0
 33 83  1  0
 34 35  2  0
 34 38  1  0
 35 36  1  0
 35 84  1  0
 36 37  1  0
 36 85  1  0
 37 38  2  0
 37 39  1  0
 39 40  1  0
 39 43  1  0
 39 86  1  0
 40 41  1  0
 40 87  1  0
 40 88  1  0
 41 42  1  0
 41 89  1  0
 41 90  1  0
 42 43  1  0
 42 91  1  0
 42 92  1  0
 43 44  1  0
 44 45  2  0
 44 46  1  0
 46 47  1  0
 46 52  1  0
 46 93  1  0
 47 48  1  0
 47 94  1  0
 48 49  2  0
 48 50  1  0
 50 51  1  0
 51 95  1  0
 51 96  1  0
 51 97  1  0
 52 53  1  0
 52 54  1  0
 52 98  1  0
 53 99  1  0
 53100  1  0
 53101  1  0
 54102  1  0
 54103  1  0
 54104  1  0
M  END
> <Mol2_MolInfo_Name>
1094

> <Mol2_MolInfo_Type>
SMALL

> <Mol2_MolInfo_Charge>
USER_CHARGES

> <Mol2_Substructures>
     1 ****        1 GROUP             0       ****    0 ROOT    

> <Name>
1094

$$$$
1094
  SciTegic06232017503D

104109  0  0  0  0            999 V2000
  -10.6401    6.9232   -3.8656 C   0  0
   -9.4498    6.1721   -3.6712 O   0  0
   -9.4806    4.8255   -3.6500 C   0  0
  -10.4997    4.1430   -3.7838 O   0  0
   -8.1879    4.3543   -3.4585 N   0  0
   -7.8949    2.9141   -3.3942 C   0  0  1  0  0  0
   -6.9011    2.4962   -4.5345 C   0  0  2  0  0  0
   -7.4802    2.7820   -5.9348 C   0  0
   -6.4473    1.0194   -4.4689 C   0  0
   -7.2543    2.6250   -2.0046 C   0  0
   -6.0858    2.9803   -1.8268 O   0  0
   -7.9755    1.9584   -1.0628 N   0  0
   -9.4292    1.7562   -1.1562 C   0  0
   -9.8447    1.6615    0.3072 C   0  0
   -8.6669    0.9781    0.9686 C   0  0
   -7.4403    1.5908    0.2693 C   0  0  1  0  0  0
   -6.2224    0.6634    0.2477 C   0  0
   -6.2449   -0.6501    0.2521 N   0  0
   -4.9763   -1.0191    0.1831 C   0  0
   -4.0930    0.0572    0.1241 C   0  0
   -4.9382    1.1355    0.1777 N   0  0
   -2.6070    0.1442    0.0109 C   0  0
   -1.8370   -1.0183    0.0937 C   0  0
   -0.4516   -0.9516   -0.0258 C   0  0
    0.1899    0.2756   -0.2305 C   0  0
   -0.5871    1.4373   -0.3066 C   0  0
   -1.9724    1.3740   -0.1885 C   0  0
    1.6719    0.3431   -0.3721 C   0  0
    2.3554   -0.6032   -1.1442 C   0  0
    3.7389   -0.5421   -1.2823 C   0  0
    4.4661    0.4676   -0.6478 C   0  0
    3.7904    1.4167    0.1252 C   0  0
    2.4060    1.3537    0.2600 C   0  0
    5.9501    0.5133   -0.8058 C   0  0
    6.8311   -0.1938   -1.6234 C   0  0
    8.0953    0.1538   -1.4529 N   0  0
    8.0696    1.0826   -0.5252 C   0  0
    6.7913    1.3442   -0.1095 N   0  0
    9.2835    1.8183    0.0325 C   0  0  2  0  0  0
    9.6081    3.1116   -0.7260 C   0  0
   10.7392    2.7260   -1.6592 C   0  0
   11.5658    1.7318   -0.8478 C   0  0
   10.5620    1.0775    0.0021 N   0  0
   10.7785   -0.0369    0.7493 C   0  0
    9.9137   -0.5266    1.4814 O   0  0
   12.1582   -0.7657    0.6763 C   0  0  1  0  0  0
   12.8189   -0.8158    1.9941 N   0  0
   13.2999    0.3284    2.6225 C   0  0
   13.2546    1.4803    2.1826 O   0  0
   13.8428   -0.0234    3.8040 O   0  0
   14.4211    0.9542    4.6570 C   0  0
   11.9317   -2.2205    0.1326 C   0  0  2  0  0  0
   13.2543   -3.0052    0.0072 C   0  0
   11.1759   -2.2954   -1.2151 C   0  0
  -10.4136    7.9890   -3.8402 H   0  0
  -11.3693    6.7128   -3.0818 H   0  0
  -11.0933    6.6953   -4.8314 H   0  0
   -7.4246    5.0090   -3.3693 H   0  0
   -8.7902    2.3060   -3.5348 H   0  0
   -5.9995    3.1075   -4.4566 H   0  0
   -8.4124    2.2393   -6.0939 H   0  0
   -6.7840    2.4839   -6.7193 H   0  0
   -7.6854    3.8431   -6.0766 H   0  0
   -7.3040    0.3451   -4.4836 H   0  0
   -5.8707    0.8043   -3.5690 H   0  0
   -5.8118    0.7640   -5.3174 H   0  0
   -9.9619    2.5900   -1.6144 H   0  0
   -9.6424    0.7985   -1.6331 H   0  0
   -9.9810    2.6620    0.7226 H   0  0
  -10.7867    1.1282    0.4389 H   0  0
   -8.6520    1.1473    2.0459 H   0  0
   -8.7437   -0.0977    0.8015 H   0  0
   -7.1642    2.4914    0.8207 H   0  0
   -4.7019   -2.0635    0.1648 H   0  0
   -4.6652    2.1072    0.1416 H   0  0
   -2.3048   -1.9794    0.2489 H   0  0
    0.1235   -1.8636    0.0438 H   0  0
   -0.1199    2.3976   -0.4704 H   0  0
   -2.5463    2.2864   -0.2605 H   0  0
    1.8148   -1.3903   -1.6493 H   0  0
    4.2386   -1.2860   -1.8850 H   0  0
    4.3305    2.2074    0.6249 H   0  0
    1.9053    2.0948    0.8660 H   0  0
    6.5569   -0.9555   -2.3382 H   0  0
    6.5188    2.0164    0.5932 H   0  0
    9.0856    2.0685    1.0765 H   0  0
    8.7522    3.5273   -1.2601 H   0  0
    9.9510    3.8753   -0.0258 H   0  0
   10.3345    2.2330   -2.5452 H   0  0
   11.3283    3.5760   -2.0046 H   0  0
   12.0706    1.0345   -1.5172 H   0  0
   12.2883    2.2615   -0.2257 H   0  0
   12.8534   -0.2836   -0.0110 H   0  0
   12.9784   -1.7178    2.4183 H   0  0
   14.7687    0.4834    5.5764 H   0  0
   13.6941    1.7229    4.9237 H   0  0
   15.2747    1.4351    4.1772 H   0  0
   11.3284   -2.7694    0.8589 H   0  0
   13.9420   -2.5101   -0.6790 H   0  0
   13.0812   -4.0142   -0.3679 H   0  0
   13.7586   -3.1059    0.9683 H   0  0
   11.6744   -1.6984   -1.9793 H   0  0
   10.1492   -1.9392   -1.1309 H   0  0
   11.1202   -3.3213   -1.5803 H   0  0
  1  2  1  0
  1 55  1  0
  1 56  1  0
  1 57  1  0
  2  3  1  0
  3  4  2  0
  3  5  1  0
  5  6  1  0
  5 58  1  0
  6  7  1  0
  6 10  1  0
  6 59  1  0
  7  8  1  0
  7  9  1  0
  7 60  1  0
  8 61  1  0
  8 62  1  0
  8 63  1  0
  9 64  1  0
  9 65  1  0
  9 66  1  0
 10 11  2  0
 10 12  1  0
 12 13  1  0
 12 16  1  0
 13 14  1  0
 13 67  1  0
 13 68  1  0
 14 15  1  0
 14 69  1  0
 14 70  1  0
 15 16  1  0
 15 71  1  0
 15 72  1  0
 16 17  1  0
 16 73  1  0
 17 18  2  0
 17 21  1  0
 18 19  1  0
 19 20  2  0
 19 74  1  0
 20 21  1  0
 20 22  1  0
 21 75  1  0
 22 23  2  0
 22 27  1  0
 23 24  1  0
 23 76  1  0
 24 25  2  0
 24 77  1  0
 25 26  1  0
 25 28  1  0
 26 27  2  0
 26 78  1  0
 27 79  1  0
 28 29  2  0
 28 33  1  0
 29 30  1  0
 29 80  1  0
 30 31  2  0
 30 81  1  0
 31 32  1  0
 31 34  1  0
 32 33  2  0
 32 82  1  0
 33 83  1  0
 34 35  2  0
 34 38  1  0
 35 36  1  0
 35 84  1  0
 36 37  2  0
 37 38  1  0
 37 39  1  0
 38 85  1  0
 39 40  1  0
 39 43  1  0
 39 86  1  0
 40 41  1  0
 40 87  1  0
 40 88  1  0
 41 42  1  0
 41 89  1  0
 41 90  1  0
 42 43  1  0
 42 91  1  0
 42 92  1  0
 43 44  1  0
 44 45  2  0
 44 46  1  0
 46 47  1  0
 46 52  1  0
 46 93  1  0
 47 48  1  0
 47 94  1  0
 48 49  2  0
 48 50  1  0
 50 51  1  0
 51 95  1  0
 51 96  1  0
 51 97  1  0
 52 53  1  0
 52 54  1  0
 52 98  1  0
 53 99  1  0
 53100  1  0
 53101  1  0
 54102  1  0
 54103  1  0
 54104  1  0
M  END
> <Mol2_MolInfo_Name>
1094

> <Mol2_MolInfo_Type>
SMALL

> <Mol2_MolInfo_Charge>
USER_CHARGES

> <Mol2_Substructures>
     1 ****        1 GROUP             0       ****    0 ROOT    

> <Name>
1094

$$$$
1102
  SciTegic06232017503D

 43 46  0  0  0  0            999 V2000
   -0.3639    2.3680    0.1856 C   0  0
   -0.7196    0.9270   -0.2039 C   0  0
    0.1659   -0.3083    0.9243 S   0  0
   -0.1697   -1.6692    0.4923 O   0  0
   -0.0544    0.0893    2.3192 O   0  0
    1.8699   -0.0509    0.5700 N   0  0
    2.5482   -0.3085   -0.7334 C   0  0
    3.7209   -0.9001    0.0870 C   0  0  1  0  0  0
    5.0064   -0.0649   -0.1278 C   0  0
    6.0803   -0.3649    0.8346 C   0  0
    6.9227   -0.6011    1.5913 N   0  0
    3.0184   -0.4984    1.4094 C   0  0
    4.0135   -2.3254   -0.1221 N   0  0
    4.2390   -3.2999    0.8177 C   0  0
    4.5087   -4.4746    0.1286 C   0  0
    4.4258   -4.0679   -1.2162 C   0  0
    4.1482   -2.7938   -1.3691 N   0  0
    4.8121   -5.8364    0.6681 C   0  0
    4.8528   -6.8338   -0.2590 N   0  0
    5.1216   -8.0888    0.1815 C   0  0
    5.3649   -8.4899    1.4565 N   0  0
    5.3240   -7.4851    2.3382 C   0  0
    5.5329   -7.5741    3.6971 N   0  0
    5.4105   -6.3265    4.2593 C   0  0
    5.1202   -5.3999    3.2751 C   0  0
    5.0545   -6.1178    2.0318 C   0  0
   -0.8710    3.0817   -0.4638 H   0  0
    0.7081    2.5483    0.1018 H   0  0
   -0.6603    2.5856    1.2120 H   0  0
   -1.7908    0.7452   -0.1172 H   0  0
   -0.4171    0.7134   -1.2290 H   0  0
    2.0687   -1.0762   -1.3422 H   0  0
    2.8212    0.5909   -1.2864 H   0  0
    5.4063   -0.2254   -1.1297 H   0  0
    4.7954    1.0019   -0.0444 H   0  0
    3.5284    0.3064    1.9398 H   0  0
    2.7956   -1.3661    2.0298 H   0  0
    4.1886   -3.0730    1.8705 H   0  0
    4.5780   -4.7067   -2.0740 H   0  0
    5.1437   -8.8615   -0.5726 H   0  0
    5.7469   -8.4000    4.2372 H   0  0
    5.5449   -6.2036    5.3242 H   0  0
    4.9801   -4.3447    3.4513 H   0  0
  1  2  1  0
  1 27  1  0
  1 28  1  0
  1 29  1  0
  2  3  1  0
  2 30  1  0
  2 31  1  0
  3  4  2  0
  3  5  2  0
  3  6  1  0
  6  7  1  0
  6 12  1  0
  7  8  1  0
  7 32  1  0
  7 33  1  0
  8  9  1  0
  8 12  1  0
  8 13  1  0
  9 10  1  0
  9 34  1  0
  9 35  1  0
 10 11  3  0
 12 36  1  0
 12 37  1  0
 13 14  1  0
 13 17  1  0
 14 15  2  0
 14 38  1  0
 15 16  1  0
 15 18  1  0
 16 17  2  0
 16 39  1  0
 18 19  2  0
 18 26  1  0
 19 20  1  0
 20 21  2  0
 20 40  1  0
 21 22  1  0
 22 23  1  0
 22 26  2  0
 23 24  1  0
 23 41  1  0
 24 25  2  0
 24 42  1  0
 25 26  1  0
 25 43  1  0
M  END
> <Mol2_MolInfo_Name>
1102

> <Mol2_MolInfo_Type>
SMALL

> <Mol2_MolInfo_Charge>
USER_CHARGES

> <Mol2_Substructures>
     1 ****        1 GROUP             0       ****    0 ROOT    

> <Name>
1102

$$$$
3038
  SciTegic06232017503D

103109  0  0  0  0            999 V2000
   -8.7818   -4.3304   -6.2431 C   0  0
   -8.0020   -3.2396   -5.7656 O   0  0
   -8.0700   -2.8949   -4.4295 C   0  0
   -8.8739   -3.5488   -3.4823 C   0  0
   -8.8900   -3.1486   -2.1475 C   0  0
   -8.0865   -2.0659   -1.7251 C   0  0
   -8.0984   -1.6790   -0.4187 N   0  0
   -7.3032   -0.6352   -0.0635 C   0  0
   -7.3315   -0.2498    1.4121 C   0  0
   -8.6903    0.3196    1.8727 C   0  0
   -8.6449    0.9822    3.2630 C   0  0
   -8.3207    0.0272    4.4303 C   0  0
   -8.0000    0.7526    5.7512 C   0  0
   -6.6360    1.4731    5.7380 C   0  0  2  0  0  0
   -6.4561    2.5125    6.8235 C   0  0
   -6.4907    2.9281    5.3657 C   0  0  1  0  0  0
   -5.2451    3.3714    4.8402 O   0  0
   -5.0409    3.4596    3.5096 C   0  0
   -5.8894    3.2247    2.6458 O   0  0
   -3.7252    3.8476    3.2831 N   0  0
   -3.1946    4.0157    1.9150 C   0  0  2  0  0  0
   -2.6942    2.6444    1.3635 C   0  0
   -1.9231    1.9935    2.0748 O   0  0
   -3.0383    2.2439    0.1082 N   0  0  2  0  0  0
   -4.1077    2.8291   -0.7082 C   0  0
   -4.6982    1.6313   -1.4526 C   0  0  1  0  0  0
   -3.5180    0.6786   -1.6459 C   0  0
   -2.5577    0.9758   -0.4786 C   0  0  1  0  0  0
   -1.0843    1.0723   -0.9320 C   0  0
   -0.7242    1.9681   -1.6991 O   0  0
   -0.2687    0.1032   -0.4814 N   0  0
    1.1751    0.0114   -0.7205 C   0  0  2  0  0  0
    1.7418    0.1105   -2.1421 C   0  0
    1.6617   -1.2312   -1.4588 C   0  0  1  0  0  0
    2.9662   -1.9417   -1.1293 C   0  0
    3.1346   -3.2719   -1.1753 C   0  0
    2.0606    0.6347    0.3848 C   0  0
    2.7158    1.6381    0.0889 O   0  0
    2.0288    0.0398    1.5549 N   0  0
    2.8399    0.5810    2.7896 S   0  0
    2.5863   -0.2267    3.9874 O   0  0
    4.2519    0.8552    2.4914 O   0  0
    2.0298    2.2603    3.1779 C   0  0  2  0  0  0
    2.7351    3.5143    2.7126 C   0  0
    2.7464    3.1346    4.1782 C   0  0
   -5.7030    1.0884   -0.5874 O   0  0
   -6.4975    0.0302   -0.9956 C   0  0
   -6.4800   -0.3453   -2.3065 N   0  0
   -7.2673   -1.3923   -2.6794 C   0  0
   -7.2739   -1.8222   -4.0261 C   0  0
   -2.1485    5.1921    1.8231 C   0  0  2  0  0  0
   -1.7041    5.4237    0.3543 C   0  0
   -0.8817    4.9137    2.6741 C   0  0
   -2.7772    6.5156    2.3328 C   0  0
   -8.6009   -4.4616   -7.3097 H   0  0
   -9.8491   -4.1474   -6.1095 H   0  0
   -8.5124   -5.2633   -5.7456 H   0  0
   -9.5002   -4.3809   -3.7664 H   0  0
   -9.5136   -3.6635   -1.4304 H   0  0
   -7.0769   -1.1348    1.9962 H   0  0
   -6.5439    0.4748    1.6229 H   0  0
   -9.0194    1.0715    1.1537 H   0  0
   -9.4495   -0.4639    1.8588 H   0  0
   -7.9158    1.7881    3.2304 H   0  0
   -9.6025    1.4665    3.4589 H   0  0
   -9.1690   -0.6415    4.5823 H   0  0
   -7.4784   -0.6172    4.1787 H   0  0
   -8.8060    1.4492    5.9888 H   0  0
   -7.9935    0.0225    6.5616 H   0  0
   -5.8299    0.8232    5.3935 H   0  0
   -7.2991    2.7791    7.4616 H   0  0
   -5.5093    2.5463    7.3633 H   0  0
   -7.3323    3.4414    4.8974 H   0  0
   -3.0938    3.9523    4.0638 H   0  0
   -4.0244    4.3741    1.3090 H   0  0
   -4.8976    3.4283   -0.2572 H   0  0
   -3.6433    3.4499   -1.4756 H   0  0
   -5.1614    1.9663   -2.3827 H   0  0
   -3.8154   -0.3699   -1.6187 H   0  0
   -3.0819    0.8832   -2.6261 H   0  0
   -2.5932    0.1853    0.2744 H   0  0
   -0.6351   -0.5363    0.2087 H   0  0
    1.0722    0.2943   -2.9826 H   0  0
    2.7538    0.4687   -2.3390 H   0  0
    0.8790   -1.8943   -1.8314 H   0  0
    3.8015   -1.3194   -0.8403 H   0  0
    2.3270   -3.9312   -1.4586 H   0  0
    4.0861   -3.7193   -0.9281 H   0  0
    0.9421    2.1950    3.1988 H   0  0
    3.6524    3.4200    2.1314 H   0  0
    2.1271    4.3574    2.3858 H   0  0
    2.1449    3.7104    4.8815 H   0  0
    3.6698    2.7653    4.6252 H   0  0
   -6.6505   -1.3104   -4.7455 H   0  0
   -1.0083    6.2603    0.2751 H   0  0
   -2.5532    5.6520   -0.2914 H   0  0
   -1.1914    4.5563   -0.0635 H   0  0
   -0.3173    4.0634    2.2930 H   0  0
   -1.1243    4.7146    3.7184 H   0  0
   -0.1979    5.7637    2.6617 H   0  0
   -2.0817    7.3514    2.2425 H   0  0
   -3.0588    6.4575    3.3849 H   0  0
   -3.6693    6.7808    1.7640 H   0  0
  1  2  1  0
  1 55  1  0
  1 56  1  0
  1 57  1  0
  2  3  1  0
  3  4  2  0
  3 50  1  0
  4  5  1  0
  4 58  1  0
  5  6  2  0
  5 59  1  0
  6  7  1  0
  6 49  1  0
  7  8  2  0
  8  9  1  0
  8 47  1  0
  9 10  1  0
  9 60  1  0
  9 61  1  0
 10 11  1  0
 10 62  1  0
 10 63  1  0
 11 12  1  0
 11 64  1  0
 11 65  1  0
 12 13  1  0
 12 66  1  0
 12 67  1  0
 13 14  1  0
 13 68  1  0
 13 69  1  0
 14 15  1  0
 14 16  1  0
 14 70  1  0
 15 16  1  0
 15 71  1  0
 15 72  1  0
 16 17  1  0
 16 73  1  0
 17 18  1  0
 18 19  2  0
 18 20  1  0
 20 21  1  0
 20 74  1  0
 21 22  1  0
 21 51  1  0
 21 75  1  0
 22 23  2  0
 22 24  1  0
 24 25  1  0
 24 28  1  0
 25 26  1  0
 25 76  1  0
 25 77  1  0
 26 27  1  0
 26 46  1  0
 26 78  1  0
 27 28  1  0
 27 79  1  0
 27 80  1  0
 28 29  1  0
 28 81  1  0
 29 30  2  0
 29 31  1  0
 31 32  1  0
 31 82  1  0
 32 33  1  0
 32 34  1  0
 32 37  1  0
 33 34  1  0
 33 83  1  0
 33 84  1  0
 34 35  1  0
 34 85  1  0
 35 36  2  0
 35 86  1  0
 36 87  1  0
 36 88  1  0
 37 38  2  0
 37 39  1  0
 39 40  1  0
 40 41  2  0
 40 42  2  0
 40 43  1  0
 43 44  1  0
 43 45  1  0
 43 89  1  0
 44 45  1  0
 44 90  1  0
 44 91  1  0
 45 92  1  0
 45 93  1  0
 46 47  1  0
 47 48  2  0
 48 49  1  0
 49 50  2  0
 50 94  1  0
 51 52  1  0
 51 53  1  0
 51 54  1  0
 52 95  1  0
 52 96  1  0
 52 97  1  0
 53 98  1  0
 53 99  1  0
 53100  1  0
 54101  1  0
 54102  1  0
 54103  1  0
M  END
> <Mol2_MolInfo_Name>
3038

> <Mol2_MolInfo_Type>
SMALL

> <Mol2_MolInfo_Charge>
USER_CHARGES

> <Mol2_Substructures>
     1 ****        1 GROUP             0       ****    0 ROOT    

> <Name>
3038

$$$$
3564
  SciTegic06232017503D

110113  0  0  0  0            999 V2000
   -5.4562   -5.9965   -0.7768 C   0  0
   -3.9999   -5.5419   -0.9442 C   0  0
   -3.7350   -4.1497   -0.3446 C   0  0
   -2.2675   -3.6977   -0.5014 C   0  0
   -1.9569   -2.2362   -0.0794 C   0  0  2  0  0  0
   -0.5646   -1.8991   -0.4222 N   0  0
   -0.0395   -0.6628   -0.5125 C   0  0
   -0.7052    0.3642   -0.3635 O   0  0
    1.4919   -0.6007   -0.7146 C   0  0  2  0  0  0
    2.1498    0.0525    0.5016 C   0  0  2  0  0  0
    3.6589    0.1539    0.0507 C   0  0  1  0  0  0
    3.1220    1.0953   -1.0604 C   0  0
    1.9942    0.3829   -1.6884 N   0  0
    1.4957    0.6303   -2.9321 C   0  0
    0.5895   -0.0445   -3.4244 O   0  0
    2.0610    1.8161   -3.7695 C   0  0  1  0  0  0
    2.9805    1.2413   -4.7601 N   0  0
    4.3180    1.3450   -4.7476 C   0  0
    4.9516    2.0104   -3.9289 O   0  0
    4.8716    0.5822   -5.7080 N   0  0
    6.2489    0.0499   -5.8204 C   0  0  2  0  0  0
    6.3510   -1.3136   -5.0606 C   0  0
    5.7643   -1.3400   -3.2429 S   0  0
    4.2982   -1.3995   -3.2464 O   0  0
    6.4401   -0.2633   -2.5113 O   0  0
    6.3964   -3.0033   -2.5363 C   0  0  2  0  0  0
    5.8498   -3.1222   -1.0995 C   0  0
    7.9399   -2.9986   -2.5174 C   0  0
    5.8567   -4.1550   -3.4096 C   0  0
    7.3998    1.0242   -5.4030 C   0  0
    7.3545    2.3618   -6.1823 C   0  0
    7.4367    2.1238   -7.7072 C   0  0
    6.4578    1.0339   -8.1991 C   0  0
    6.5617   -0.2359   -7.3208 C   0  0
    0.9829    2.7626   -4.4324 C   0  0  2  0  0  0
    1.7029    4.0306   -4.9643 C   0  0
   -0.0720    3.2423   -3.3995 C   0  0
    0.2492    2.1203   -5.6428 C   0  0
    3.1500   -0.5424    1.3267 C   0  0  2  0  0  0
    3.2709   -2.0765    1.4433 C   0  0
    3.4852    0.1559    2.6563 C   0  0
   -2.1370   -2.0260    1.4319 C   0  0
   -1.2342   -2.1846    2.2623 O   0  0
   -3.5824   -1.5629    1.8949 C   0  0
   -4.4623   -1.2736    1.0821 O   0  0
   -3.7071   -1.5337    3.2345 N   0  0
   -4.9569   -1.2588    3.9345 C   0  0  2  0  0  0
   -5.5783    0.1181    3.8282 C   0  0
   -4.9293   -0.3214    5.1189 C   0  0
   -5.6093   -6.9829   -1.2156 H   0  0
   -6.1446   -5.3064   -1.2661 H   0  0
   -5.7336   -6.0559    0.2762 H   0  0
   -3.3413   -6.2745   -0.4754 H   0  0
   -3.7475   -5.5386   -2.0056 H   0  0
   -4.3922   -3.4215   -0.8226 H   0  0
   -4.0043   -4.1687    0.7120 H   0  0
   -1.6151   -4.3857    0.0405 H   0  0
   -1.9895   -3.8094   -1.5511 H   0  0
   -2.5952   -1.5682   -0.6629 H   0  0
    0.0535   -2.6903   -0.5282 H   0  0
    1.8945   -1.5917   -0.9229 H   0  0
    1.6008    0.8964    0.9366 H   0  0
    4.2422   -0.5959   -0.4865 H   0  0
    2.8261    2.0679   -0.6583 H   0  0
    3.9346    1.2807   -1.7611 H   0  0
    2.6201    2.4658   -3.0966 H   0  0
    2.5412    0.6958   -5.4869 H   0  0
    4.2684    0.3263   -6.4757 H   0  0
    5.7591   -2.0766   -5.5664 H   0  0
    7.3801   -1.6681   -5.0716 H   0  0
    6.1773   -4.0437   -0.6168 H   0  0
    4.7600   -3.1155   -1.0931 H   0  0
    6.1775   -2.2880   -0.4778 H   0  0
    8.3293   -2.1467   -1.9587 H   0  0
    8.3631   -2.9435   -3.5194 H   0  0
    8.3335   -3.9017   -2.0493 H   0  0
    6.1199   -5.1282   -2.9930 H   0  0
    6.2546   -4.1143   -4.4234 H   0  0
    4.7695   -4.1172   -3.4901 H   0  0
    7.3574    1.2433   -4.3376 H   0  0
    8.3733    0.5549   -5.5562 H   0  0
    6.4442    2.9135   -5.9495 H   0  0
    8.1785    3.0020   -5.8655 H   0  0
    7.2569    3.0576   -8.2413 H   0  0
    8.4545    1.8234   -7.9613 H   0  0
    5.4382    1.4217   -8.1907 H   0  0
    6.6758    0.7860   -9.2384 H   0  0
    7.5494   -0.6868   -7.4381 H   0  0
    5.8560   -0.9709   -7.7118 H   0  0
    1.0023    4.7219   -5.4354 H   0  0
    2.4577    3.7887   -5.7138 H   0  0
    2.1982    4.5812   -4.1630 H   0  0
    0.3910    3.7907   -2.5779 H   0  0
   -0.6383    2.4155   -2.9698 H   0  0
   -0.8026    3.9107   -3.8572 H   0  0
   -0.4861    2.8059   -6.0666 H   0  0
   -0.2974    1.2179   -5.3751 H   0  0
    0.9372    1.8671   -6.4503 H   0  0
    4.2656   -2.3644    1.7852 H   0  0
    3.1015   -2.5902    0.4990 H   0  0
    2.5450   -2.4691    2.1560 H   0  0
    4.4874   -0.1069    2.9966 H   0  0
    2.7789   -0.1282    3.4369 H   0  0
    3.4511    1.2427    2.5661 H   0  0
   -2.9296   -1.8495    3.7962 H   0  0
   -5.6334   -2.1143    3.9676 H   0  0
   -5.0834    0.8732    3.2161 H   0  0
   -6.6648    0.1892    3.7751 H   0  0
   -5.5594   -0.5566    5.9767 H   0  0
   -3.9787    0.1251    5.4132 H   0  0
  1  2  1  0
  1 50  1  0
  1 51  1  0
  1 52  1  0
  2  3  1  0
  2 53  1  0
  2 54  1  0
  3  4  1  0
  3 55  1  0
  3 56  1  0
  4  5  1  0
  4 57  1  0
  4 58  1  0
  5  6  1  0
  5 42  1  0
  5 59  1  0
  6  7  1  0
  6 60  1  0
  7  8  2  0
  7  9  1  0
  9 10  1  0
  9 13  1  0
  9 61  1  0
 10 11  1  0
 10 39  1  0
 10 62  1  0
 11 12  1  0
 11 39  1  0
 11 63  1  0
 12 13  1  0
 12 64  1  0
 12 65  1  0
 13 14  1  0
 14 15  2  0
 14 16  1  0
 16 17  1  0
 16 35  1  0
 16 66  1  0
 17 18  1  0
 17 67  1  0
 18 19  2  0
 18 20  1  0
 20 21  1  0
 20 68  1  0
 21 22  1  0
 21 30  1  0
 21 34  1  0
 22 23  1  0
 22 69  1  0
 22 70  1  0
 23 24  2  0
 23 25  2  0
 23 26  1  0
 26 27  1  0
 26 28  1  0
 26 29  1  0
 27 71  1  0
 27 72  1  0
 27 73  1  0
 28 74  1  0
 28 75  1  0
 28 76  1  0
 29 77  1  0
 29 78  1  0
 29 79  1  0
 30 31  1  0
 30 80  1  0
 30 81  1  0
 31 32  1  0
 31 82  1  0
 31 83  1  0
 32 33  1  0
 32 84  1  0
 32 85  1  0
 33 34  1  0
 33 86  1  0
 33 87  1  0
 34 88  1  0
 34 89  1  0
 35 36  1  0
 35 37  1  0
 35 38  1  0
 36 90  1  0
 36 91  1  0
 36 92  1  0
 37 93  1  0
 37 94  1  0
 37 95  1  0
 38 96  1  0
 38 97  1  0
 38 98  1  0
 39 40  1  0
 39 41  1  0
 40 99  1  0
 40100  1  0
 40101  1  0
 41102  1  0
 41103  1  0
 41104  1  0
 42 43  2  0
 42 44  1  0
 44 45  2  0
 44 46  1  0
 46 47  1  0
 46105  1  0
 47 48  1  0
 47 49  1  0
 47106  1  0
 48 49  1  0
 48107  1  0
 48108  1  0
 49109  1  0
 49110  1  0
M  END
> <Mol2_MolInfo_Name>
3564

> <Mol2_MolInfo_Type>
SMALL

> <Mol2_MolInfo_Charge>
USER_CHARGES

> <Mol2_Substructures>
     1 ****        1 GROUP             0       ****    0 ROOT    

> <Name>
3564

$$$$
3878
  SciTegic06232017503D

 38 41  0  0  0  0            999 V2000
    0.5211    1.8150    1.3350 O   0  0
   -0.0603    0.7395    1.1868 C   0  0
   -1.7330    0.4285    1.7286 S   0  0
   -1.6782   -1.0360    0.8175 N   0  0
   -0.4299   -1.4631    0.5338 C   0  0
   -0.1004   -2.6256    0.2844 O   0  0
    0.4045   -0.4039    0.6485 N   0  0
    1.6405   -0.3752   -0.1591 C   0  0
    1.4053   -0.1651   -1.6532 C   0  0
    1.0729    1.1015   -2.1410 C   0  0
    0.8477    1.2836   -3.5031 C   0  0
    0.9644    0.2011   -4.3727 C   0  0
    1.3085   -1.0612   -3.8935 C   0  0
    1.5338   -1.2438   -2.5318 C   0  0
   -2.8395   -1.7442    0.4732 C   0  0
   -3.5774   -2.3400    1.4988 C   0  0
   -4.7287   -3.0653    1.2207 C   0  0
   -5.1747   -3.2106   -0.0880 C   0  0
   -4.4672   -2.6145   -1.1601 C   0  0
   -4.9167   -2.7501   -2.4979 C   0  0
   -4.2177   -2.1526   -3.5416 C   0  0
   -3.0717   -1.4098   -3.2880 C   0  0
   -2.6025   -1.2561   -1.9874 C   0  0
   -3.2807   -1.8607   -0.8878 C   0  0
    2.3182    0.4037    0.1955 H   0  0
    2.1880   -1.3073   -0.0083 H   0  0
    0.9804    1.9409   -1.4674 H   0  0
    0.5835    2.2593   -3.8838 H   0  0
    0.7887    0.3423   -5.4290 H   0  0
    1.3990   -1.8946   -4.5745 H   0  0
    1.7941   -2.2245   -2.1601 H   0  0
   -3.2508   -2.2497    2.5251 H   0  0
   -5.2801   -3.5236    2.0284 H   0  0
   -6.0705   -3.7796   -0.2916 H   0  0
   -5.8104   -3.3211   -2.7053 H   0  0
   -4.5706   -2.2634   -4.5564 H   0  0
   -2.5403   -0.9465   -4.1066 H   0  0
   -1.7123   -0.6678   -1.8210 H   0  0
  1  2  2  0
  2  3  1  0
  2  7  1  0
  3  4  1  0
  4  5  1  0
  4 15  1  0
  5  6  2  0
  5  7  1  0
  7  8  1  0
  8  9  1  0
  8 25  1  0
  8 26  1  0
  9 10  2  0
  9 14  1  0
 10 11  1  0
 10 27  1  0
 11 12  2  0
 11 28  1  0
 12 13  1  0
 12 29  1  0
 13 14  2  0
 13 30  1  0
 14 31  1  0
 15 16  2  0
 15 24  1  0
 16 17  1  0
 16 32  1  0
 17 18  2  0
 17 33  1  0
 18 19  1  0
 18 34  1  0
 19 20  2  0
 19 24  1  0
 20 21  1  0
 20 35  1  0
 21 22  2  0
 21 36  1  0
 22 23  1  0
 22 37  1  0
 23 24  2  0
 23 38  1  0
M  END
> <Mol2_MolInfo_Name>
3878

> <Mol2_MolInfo_Type>
SMALL

> <Mol2_MolInfo_Charge>
USER_CHARGES

> <Mol2_Substructures>
     1 ****        1 GROUP             0       ****    0 ROOT    

> <Name>
3878

$$$$
3961
  SciTegic06232017503D

 47 48  0  0  0  0            999 V2000
   -6.7083    5.7622   -0.0824 C   0  0
   -6.0790    4.4862   -0.1297 O   0  0
   -4.6992    4.4156   -0.1275 C   0  0
   -3.8459    5.5299   -0.0957 C   0  0
   -2.4636    5.3591   -0.0952 C   0  0
   -1.9150    4.0784   -0.1243 C   0  0
   -2.7443    2.9465   -0.1534 C   0  0
   -4.1350    3.1377   -0.1583 C   0  0
   -2.1880    1.5540   -0.1855 C   0  0
   -2.8992    0.5511   -0.2824 O   0  0
   -0.6610    1.3915   -0.0511 C   0  0
   -0.1811   -0.0701    0.0314 C   0  0
    1.3351   -0.0702    0.2863 N   0  3
    2.0331   -1.4465    0.2433 C   0  0  1  0  0  0
    3.5512   -1.1913    0.1559 C   0  0
    1.5882   -2.3391    1.4394 C   0  0  2  0  0  0
    1.9089   -1.7100    2.6706 O   0  0
    2.1318   -3.7665    1.3227 C   0  0
    3.2791   -4.1726    2.0182 C   0  0
    3.7577   -5.4727    1.8803 C   0  0
    3.0930   -6.3683    1.0463 C   0  0
    1.9547   -5.9750    0.3471 C   0  0
    1.4765   -4.6746    0.4839 C   0  0
   -7.7901    5.6298   -0.0874 H   0  0
   -6.4461    6.3703   -0.9495 H   0  0
   -6.4464    6.3039    0.8278 H   0  0
   -4.2371    6.5357   -0.0718 H   0  0
   -1.8151    6.2226   -0.0722 H   0  0
   -0.8386    3.9907   -0.1249 H   0  0
   -4.8028    2.2876   -0.1820 H   0  0
   -0.1983    1.8830   -0.9076 H   0  0
   -0.3462    1.9290    0.8441 H   0  0
   -0.6215   -0.6101    0.8701 H   0  0
   -0.3145   -0.6115   -0.9069 H   0  0
    1.7615    0.5092   -0.4229 H   0  0
    1.6914   -1.8735   -0.7015 H   0  0
    4.1011   -2.1241    0.0285 H   0  0
    3.9324   -0.7048    1.0547 H   0  0
    3.8001   -0.5556   -0.6948 H   0  0
    0.5016   -2.4281    1.4401 H   0  0
    1.5133   -2.2180    3.3834 H   0  0
    3.8082   -3.4850    2.6619 H   0  0
    4.6420   -5.7849    2.4162 H   0  0
    3.4653   -7.3765    0.9389 H   0  0
    1.4464   -6.6753   -0.2993 H   0  0
    0.5949   -4.3744   -0.0640 H   0  0
    1.5209    0.3583    1.1825 H   0  0
  1  2  1  0
  1 24  1  0
  1 25  1  0
  1 26  1  0
  2  3  1  0
  3  4  2  0
  3  8  1  0
  4  5  1  0
  4 27  1  0
  5  6  2  0
  5 28  1  0
  6  7  1  0
  6 29  1  0
  7  8  2  0
  7  9  1  0
  8 30  1  0
  9 10  2  0
  9 11  1  0
 11 12  1  0
 11 31  1  0
 11 32  1  0
 12 13  1  0
 12 33  1  0
 12 34  1  0
 13 14  1  0
 13 35  1  0
 13 47  1  0
 14 15  1  0
 14 16  1  0
 14 36  1  0
 15 37  1  0
 15 38  1  0
 15 39  1  0
 16 17  1  0
 16 18  1  0
 16 40  1  0
 17 41  1  0
 18 19  2  0
 18 23  1  0
 19 20  1  0
 19 42  1  0
 20 21  2  0
 20 43  1  0
 21 22  1  0
 21 44  1  0
 22 23  2  0
 22 45  1  0
 23 46  1  0
M  CHG  1  13   1
M  END
> <Mol2_MolInfo_Name>
3961

> <Mol2_MolInfo_Type>
SMALL

> <Mol2_MolInfo_Charge>
USER_CHARGES

> <Mol2_Substructures>
     1 ****        1 GROUP             0       ****    0 ROOT    

> <Name>
3961

$$$$
3998
  SciTegic06232017503D

 46 49  0  0  0  0            999 V2000
   -4.5816    4.9037   -1.7998 C   0  0
   -4.4749    3.6634   -0.9310 C   0  0
   -5.6208    3.1100   -0.3571 C   0  0
   -5.5244    1.9657    0.4312 C   0  0
   -4.2852    1.3631    0.6466 C   0  0
   -4.2245    0.2509    1.4184 F   0  0
   -3.1239    1.9006    0.0719 C   0  0
   -1.9159    1.2238    0.3429 N   0  0
   -0.6758    1.4272   -0.1470 C   0  0
   -0.3694    2.2740   -0.9864 O   0  0
    0.1805    0.5503    0.4157 N   0  0
    1.5739    0.4352    0.2512 C   0  0
    2.3973    1.4439   -0.2715 C   0  0
    3.7703    1.2367   -0.3733 C   0  0
    4.3426    0.0298    0.0397 C   0  0
    3.5184   -0.9641    0.5754 C   0  0
    2.1453   -0.7631    0.6825 C   0  0
    5.8107   -0.1852   -0.0557 C   0  0
    6.5413   -0.5281    1.0884 C   0  0
    7.9197   -0.7193    1.0555 C   0  0
    8.6520   -0.5819   -0.1212 C   0  0
    7.9341   -0.2544   -1.2740 C   0  0
    8.3391   -0.0562   -2.5782 N   0  0
    7.3070    0.2282   -3.3889 N   0  0
    6.2288    0.2248   -2.6505 C   0  0
    4.9901    0.4532   -3.1778 N   0  0
    6.5255   -0.0575   -1.2719 C   0  0
   -3.2319    3.0590   -0.7196 C   0  0
   -3.8330    4.8882   -2.5930 H   0  0
   -4.4377    5.8042   -1.2026 H   0  0
   -5.5544    4.9575   -2.2907 H   0  0
   -6.5867    3.5666   -0.5171 H   0  0
   -6.4137    1.5441    0.8763 H   0  0
   -2.0150    0.4579    0.9931 H   0  0
   -0.2287   -0.1564    1.0090 H   0  0
    2.0050    2.3978   -0.5866 H   0  0
    4.3940    2.0249   -0.7704 H   0  0
    3.9425   -1.9001    0.9094 H   0  0
    1.5298   -1.5474    1.1001 H   0  0
    6.0295   -0.6385    2.0338 H   0  0
    8.4357   -0.9772    1.9689 H   0  0
    9.7219   -0.7297   -0.1336 H   0  0
    9.2771   -0.1108   -2.9484 H   0  0
    4.1508    0.3161   -2.6329 H   0  0
    4.8653    0.6574   -4.1590 H   0  0
   -2.3693    3.5175   -1.1750 H   0  0
  1  2  1  0
  1 29  1  0
  1 30  1  0
  1 31  1  0
  2  3  2  0
  2 28  1  0
  3  4  1  0
  3 32  1  0
  4  5  2  0
  4 33  1  0
  5  6  1  0
  5  7  1  0
  7  8  1  0
  7 28  2  0
  8  9  1  0
  8 34  1  0
  9 10  2  0
  9 11  1  0
 11 12  1  0
 11 35  1  0
 12 13  2  0
 12 17  1  0
 13 14  1  0
 13 36  1  0
 14 15  2  0
 14 37  1  0
 15 16  1  0
 15 18  1  0
 16 17  2  0
 16 38  1  0
 17 39  1  0
 18 19  2  0
 18 27  1  0
 19 20  1  0
 19 40  1  0
 20 21  2  0
 20 41  1  0
 21 22  1  0
 21 42  1  0
 22 23  1  0
 22 27  2  0
 23 24  1  0
 23 43  1  0
 24 25  2  0
 25 26  1  0
 25 27  1  0
 26 44  1  0
 26 45  1  0
 28 46  1  0
M  END
> <Mol2_MolInfo_Name>
3998

> <Mol2_MolInfo_Type>
SMALL

> <Mol2_MolInfo_Charge>
USER_CHARGES

> <Mol2_Substructures>
     1 ****        1 GROUP             0       ****    0 ROOT    

> <Name>
3998

$$$$
4021
  SciTegic06232017503D

 49 51  0  0  0  0            999 V2000
   -2.2609   -3.5741    0.7654 C   0  0
   -2.9010   -2.3248    0.5302 O   0  0
   -2.1319   -1.2017    0.2838 C   0  0
   -0.7288   -1.2083    0.2355 C   0  0
   -0.0171   -0.0342   -0.0130 C   0  0
    1.5071   -0.0617   -0.0654 C   0  0
    2.0877   -0.6908   -1.3586 C   0  0  1  0  0  0
    1.5413    0.1355   -2.5439 N   0  3
    2.2808   -0.0970   -3.8648 C   0  0
    3.7236    0.3775   -3.6686 C   0  0
    4.3909   -0.3130   -2.4850 C   0  0
    5.7802   -0.4836   -2.4789 C   0  0
    6.4334   -1.0975   -1.4140 C   0  0
    7.7983   -1.2369   -1.4522 O   0  0
    5.6889   -1.5628   -0.3301 C   0  0
    6.2958   -2.1821    0.7338 O   0  0
    4.3045   -1.4050   -0.3304 C   0  0
    3.6282   -0.7762   -1.3865 C   0  0
   -0.7084    1.1618   -0.2122 C   0  0
   -2.1114    1.1966   -0.1712 C   0  0
   -2.8609    2.3441   -0.3578 O   0  0
   -2.1995    3.5811   -0.5989 C   0  0
   -2.8113    0.0059    0.0701 C   0  0
   -4.1844    0.0268    0.1279 O   0  0
   -4.8209   -0.1630   -1.1286 C   0  0
   -3.0179   -4.3374    0.9447 H   0  0
   -1.6173   -3.5351    1.6455 H   0  0
   -1.6717   -3.8905   -0.0967 H   0  0
   -0.1744   -2.1217    0.3909 H   0  0
    1.9005    0.9475    0.0713 H   0  0
    1.8463   -0.6141    0.8114 H   0  0
    1.6751   -1.6862   -1.5322 H   0  0
    0.5614   -0.0795   -2.6647 H   0  0
    2.1966   -1.1586   -4.1035 H   0  0
    1.7483    0.4852   -4.6178 H   0  0
    4.2922    0.2060   -4.5839 H   0  0
    3.7343    1.4562   -3.5042 H   0  0
    6.3615   -0.1255   -3.3168 H   0  0
    8.1931   -0.8822   -2.2520 H   0  0
    5.6790   -2.4607    1.4140 H   0  0
    3.7420   -1.7946    0.5052 H   0  0
   -0.1406    2.0609   -0.3985 H   0  0
   -2.9436    4.3681   -0.7211 H   0  0
   -1.6039    3.5460   -1.5124 H   0  0
   -1.5578    3.8611    0.2379 H   0  0
   -5.9021   -0.1364   -0.9944 H   0  0
   -4.5635   -1.1288   -1.5668 H   0  0
   -4.5551    0.6237   -1.8366 H   0  0
    1.5961    1.1165   -2.3097 H   0  0
  1  2  1  0
  1 26  1  0
  1 27  1  0
  1 28  1  0
  2  3  1  0
  3  4  2  0
  3 23  1  0
  4  5  1  0
  4 29  1  0
  5  6  1  0
  5 19  2  0
  6  7  1  0
  6 30  1  0
  6 31  1  0
  7  8  1  0
  7 18  1  0
  7 32  1  0
  8  9  1  0
  8 33  1  0
  8 49  1  0
  9 10  1  0
  9 34  1  0
  9 35  1  0
 10 11  1  0
 10 36  1  0
 10 37  1  0
 11 12  2  0
 11 18  1  0
 12 13  1  0
 12 38  1  0
 13 14  1  0
 13 15  2  0
 14 39  1  0
 15 16  1  0
 15 17  1  0
 16 40  1  0
 17 18  2  0
 17 41  1  0
 19 20  1  0
 19 42  1  0
 20 21  1  0
 20 23  2  0
 21 22  1  0
 22 43  1  0
 22 44  1  0
 22 45  1  0
 23 24  1  0
 24 25  1  0
 25 46  1  0
 25 47  1  0
 25 48  1  0
M  CHG  1   8   1
M  END
> <Mol2_MolInfo_Name>
4021

> <Mol2_MolInfo_Type>
SMALL

> <Mol2_MolInfo_Charge>
USER_CHARGES

> <Mol2_Substructures>
     1 ****        1 GROUP             0       ****    0 ROOT    

> <Name>
4021

$$$$
4082
  SciTegic06232017503D

 69 73  0  0  0  0            999 V2000
   -1.2474   -4.0167   -0.0465 C   0  0
   -0.8285   -2.6585    0.0805 O   0  0
   -0.9726   -1.9964    1.2898 C   0  0
   -1.5190   -2.6794    2.3358 N   0  0
   -1.6641   -2.0540    3.5341 C   0  0
   -2.2320   -2.7682    4.6167 C   0  0
   -2.3902   -2.1501    5.8552 C   0  0
   -1.9943   -0.8286    6.0451 C   0  0
   -2.2213   -0.0108    7.7487 Br  0  0
   -1.4330   -0.1002    4.9983 C   0  0
   -1.2590   -0.7013    3.7278 C   0  0
   -0.6946   -0.0159    2.6275 C   0  0
   -0.5405   -0.6638    1.3957 C   0  0
    0.0798    0.0885    0.1942 C   0  0  1  0  0  0
   -0.5698    1.4783   -0.0001 C   0  0
   -1.8471    1.5427   -0.5716 C   0  0
   -2.4699    2.7702   -0.7777 C   0  0
   -1.8176    3.9437   -0.4108 C   0  0
   -0.5505    3.8981    0.1639 C   0  0
    0.0710    2.6698    0.3713 C   0  0
    1.6709    0.0213    0.1169 C   0  0  1  0  0  0
    2.0956    0.4770    1.3914 O   0  0
    2.1530   -1.4583    0.0098 C   0  0
    3.6863   -1.6754   -0.0005 C   0  0
    4.0848   -3.1683   -0.0846 N   0  3  1  0  0  0
    3.6990   -3.9835    1.1656 C   0  0
    3.6200   -3.8626   -1.3801 C   0  0
    2.2575    0.8313   -1.0925 C   0  0
    1.5648    0.7689   -2.3123 C   0  0
    1.9450    1.4994   -3.4248 C   0  0
    3.0570    2.3195   -3.3769 C   0  0
    3.8457    2.3870   -2.2089 C   0  0
    5.0051    3.2032   -2.1972 C   0  0
    5.8225    3.2548   -1.0779 C   0  0
    5.5190    2.4941    0.0389 C   0  0
    4.3847    1.6895    0.0625 C   0  0
    3.4805    1.6215   -1.0469 C   0  0
   -1.0541   -4.3607   -1.0623 H   0  0
   -2.3166   -4.1236    0.1433 H   0  0
   -0.6986   -4.6686    0.6347 H   0  0
   -2.5424   -3.7941    4.4779 H   0  0
   -2.8244   -2.7032    6.6751 H   0  0
   -1.1274    0.9252    5.1500 H   0  0
   -0.3820    1.0108    2.7549 H   0  0
   -0.2671   -0.4622   -0.6786 H   0  0
   -2.3607    0.6370   -0.8606 H   0  0
   -3.4539    2.8118   -1.2217 H   0  0
   -2.2987    4.8972   -0.5724 H   0  0
   -0.0498    4.8126    0.4466 H   0  0
    1.0527    2.6664    0.8171 H   0  0
    1.6213   -0.0192    2.0627 H   0  0
    1.7358   -2.0365    0.8324 H   0  0
    1.7252   -1.8899   -0.8951 H   0  0
    4.1721   -1.2149   -0.8614 H   0  0
    4.1693   -1.3076    0.9055 H   0  0
    2.6137   -4.0870    1.1900 H   0  0
    4.0748   -3.4437    2.0356 H   0  0
    4.1865   -4.9545    1.0710 H   0  0
    2.5360   -3.9753   -1.3391 H   0  0
    4.1168   -4.8329   -1.4144 H   0  0
    3.9316   -3.2356   -2.2165 H   0  0
    0.6881    0.1522   -2.4241 H   0  0
    1.3642    1.4341   -4.3331 H   0  0
    3.3396    2.8932   -4.2482 H   0  0
    5.2609    3.7818   -3.0735 H   0  0
    6.7062    3.8758   -1.0832 H   0  0
    6.1743    2.5223    0.8972 H   0  0
    4.2495    1.1031    0.9513 H   0  0
    5.0950   -3.1723   -0.1161 H   0  0
  1  2  1  0
  1 38  1  0
  1 39  1  0
  1 40  1  0
  2  3  1  0
  3  4  2  0
  3 13  1  0
  4  5  1  0
  5  6  2  0
  5 11  1  0
  6  7  1  0
  6 41  1  0
  7  8  2  0
  7 42  1  0
  8  9  1  0
  8 10  1  0
 10 11  2  0
 10 43  1  0
 11 12  1  0
 12 13  2  0
 12 44  1  0
 13 14  1  0
 14 15  1  0
 14 21  1  0
 14 45  1  0
 15 16  2  0
 15 20  1  0
 16 17  1  0
 16 46  1  0
 17 18  2  0
 17 47  1  0
 18 19  1  0
 18 48  1  0
 19 20  2  0
 19 49  1  0
 20 50  1  0
 21 22  1  0
 21 23  1  0
 21 28  1  0
 22 51  1  0
 23 24  1  0
 23 52  1  0
 23 53  1  0
 24 25  1  0
 24 54  1  0
 24 55  1  0
 25 26  1  0
 25 27  1  0
 25 69  1  0
 26 56  1  0
 26 57  1  0
 26 58  1  0
 27 59  1  0
 27 60  1  0
 27 61  1  0
 28 29  2  0
 28 37  1  0
 29 30  1  0
 29 62  1  0
 30 31  2  0
 30 63  1  0
 31 32  1  0
 31 64  1  0
 32 33  2  0
 32 37  1  0
 33 34  1  0
 33 65  1  0
 34 35  2  0
 34 66  1  0
 35 36  1  0
 35 67  1  0
 36 37  2  0
 36 68  1  0
M  CHG  1  25   1
M  END
> <Mol2_MolInfo_Name>
4082

> <Mol2_MolInfo_Type>
SMALL

> <Mol2_MolInfo_Charge>
USER_CHARGES

> <Mol2_Substructures>
     1 ****        1 GROUP             0       ****    0 ROOT    

> <Name>
4082

$$$$
4419
  SciTegic06232017503D

 53 57  0  0  0  0            999 V2000
   -7.1945   -0.2116   -0.0271 O   0  5
   -6.7211    0.9475   -0.0168 C   0  0
   -7.3029    2.0543   -0.0077 O   0  0
   -5.1839    1.0564   -0.0094 C   0  0
   -4.3489   -0.0053   -0.0548 C   0  0
   -2.8695    0.0286   -0.0550 C   0  0
   -2.1762   -1.1810    0.0272 C   0  0
   -0.7843   -1.2003    0.0325 C   0  0
   -0.0482   -0.0107   -0.0421 C   0  0
   -0.7495    1.1994   -0.1230 C   0  0
   -2.1415    1.2216   -0.1295 C   0  0
    1.4478   -0.0326   -0.0387 C   0  0
    2.1515   -1.0813   -0.6377 C   0  0
    3.5406   -1.0982   -0.6386 C   0  0
    4.2622   -0.0674   -0.0398 C   0  0
    5.6284   -0.1683   -0.0924 O   0  0
    3.5966    1.0137    0.5820 C   0  0
    2.1875    0.9962    0.5628 C   0  0
    4.3732    2.1844    1.2662 C   0  0  2  0  0  0
    3.4283    3.2740    1.8970 C   0  0
    4.2244    4.4233    2.5681 C   0  0  1  0  0  0
    5.1113    3.8419    3.6960 C   0  0
    6.0843    2.7979    3.0955 C   0  0  2  0  0  0
    6.9789    3.4774    2.0259 C   0  0
    6.0907    4.0735    0.9025 C   0  0  2  0  0  0
    5.1172    5.1139    1.5086 C   0  0
    5.2777    2.9359    0.2292 C   0  0
    5.2704    1.6525    2.4369 C   0  0
   -4.7676    2.0511    0.0370 H   0  0
   -4.7840   -0.9944   -0.1018 H   0  0
   -2.7134   -2.1167    0.0902 H   0  0
   -0.2828   -2.1539    0.1066 H   0  0
   -0.2204    2.1382   -0.1953 H   0  0
   -2.6375    2.1775   -0.1998 H   0  0
    1.6259   -1.8911   -1.1218 H   0  0
    4.0568   -1.9203   -1.1131 H   0  0
    5.9257   -0.9604   -0.5454 H   0  0
    1.6276    1.7872    1.0331 H   0  0
    2.7760    3.7019    1.1335 H   0  0
    2.7719    2.8234    2.6440 H   0  0
    3.5302    5.1515    2.9898 H   0  0
    5.6682    4.6397    4.1899 H   0  0
    4.4917    3.3829    4.4681 H   0  0
    6.7115    2.3888    3.8886 H   0  0
    7.5855    4.2608    2.4832 H   0  0
    7.6832    2.7561    1.6082 H   0  0
    6.7223    4.5594    0.1577 H   0  0
    4.5015    5.5589    0.7252 H   0  0
    5.6737    5.9369    1.9599 H   0  0
    5.9811    2.2631   -0.2576 H   0  0
    4.6645    3.3454   -0.5755 H   0  0
    4.6515    1.1587    3.1881 H   0  0
    5.9729    0.8938    2.0975 H   0  0
  1  2  1  0
  2  3  2  0
  2  4  1  0
  4  5  2  0
  4 29  1  0
  5  6  1  0
  5 30  1  0
  6  7  2  0
  6 11  1  0
  7  8  1  0
  7 31  1  0
  8  9  2  0
  8 32  1  0
  9 10  1  0
  9 12  1  0
 10 11  2  0
 10 33  1  0
 11 34  1  0
 12 13  2  0
 12 18  1  0
 13 14  1  0
 13 35  1  0
 14 15  2  0
 14 36  1  0
 15 16  1  0
 15 17  1  0
 16 37  1  0
 17 18  2  0
 17 19  1  0
 18 38  1  0
 19 20  1  0
 19 27  1  0
 19 28  1  0
 20 21  1  0
 20 39  1  0
 20 40  1  0
 21 22  1  0
 21 26  1  0
 21 41  1  0
 22 23  1  0
 22 42  1  0
 22 43  1  0
 23 24  1  0
 23 28  1  0
 23 44  1  0
 24 25  1  0
 24 45  1  0
 24 46  1  0
 25 26  1  0
 25 27  1  0
 25 47  1  0
 26 48  1  0
 26 49  1  0
 27 50  1  0
 27 51  1  0
 28 52  1  0
 28 53  1  0
M  CHG  1   1  -1
M  END
> <Mol2_MolInfo_Name>
4419

> <Mol2_MolInfo_Type>
SMALL

> <Mol2_MolInfo_Charge>
USER_CHARGES

> <Mol2_Substructures>
     1 ****        1 GROUP             0       ****    0 ROOT    

> <Name>
4419

$$$$
5489
  SciTegic06232017503D

 24 25  0  0  0  0            999 V2000
    0.1626    0.0614   -0.1529 N   0  0
    1.5247    0.0457   -0.0307 C   0  0
    2.4269    1.0207    0.0951 C   0  0
    3.6558    0.4316    0.1683 N   0  0
    3.4558   -0.9526    0.1217 N   0  0
    2.0573   -1.1859   -0.0831 O   0  0
    4.7707    1.0129   -0.4787 N   0  0
    4.8527    0.7043   -1.9122 C   0  0
    6.0301    1.4709   -2.5510 C   0  0
    7.2457    1.1896   -1.8592 O   0  0
    7.1935    1.4722   -0.4617 C   0  0
    6.0299    0.7073    0.2051 C   0  0
   -0.3522    0.9301   -0.1508 H   0  0
   -0.3610   -0.7963   -0.2519 H   0  0
    2.3352    2.0963    0.1345 H   0  0
    4.9862   -0.3685   -2.0628 H   0  0
    3.9199    0.9839   -2.4040 H   0  0
    6.1417    1.1912   -3.5986 H   0  0
    5.8280    2.5433   -2.5212 H   0  0
    8.1429    1.1933   -0.0044 H   0  0
    7.0626    2.5450   -0.3077 H   0  0
    5.9554    0.9921    1.2557 H   0  0
    6.2251   -0.3662    0.1760 H   0  0
    3.6240   -1.2364    1.0762 H   0  0
  1  2  1  0
  1 13  1  0
  1 14  1  0
  2  3  2  0
  2  6  1  0
  3  4  1  0
  3 15  1  0
  4  5  1  0
  4  7  1  0
  5  6  1  0
  5 24  1  0
  7  8  1  0
  7 12  1  0
  8  9  1  0
  8 16  1  0
  8 17  1  0
  9 10  1  0
  9 18  1  0
  9 19  1  0
 10 11  1  0
 11 12  1  0
 11 20  1  0
 11 21  1  0
 12 22  1  0
 12 23  1  0
M  END
> <Mol2_MolInfo_Name>
5489

> <Mol2_MolInfo_Type>
SMALL

> <Mol2_MolInfo_Charge>
USER_CHARGES

> <Mol2_Substructures>
     1 ****        1 GROUP             0       ****    0 ROOT    

> <Name>
5489

$$$$
5723
  SciTegic06232017503D

 36 38  0  0  0  0            999 V2000
   -0.6872    1.1761    0.0758 N   0  3
    0.0678   -0.1570    0.0545 C   0  0
    1.5849    0.0010    0.0220 C   0  0
    2.3649    1.0794    0.0197 C   0  0
    3.6265    0.6612   -0.0213 N   0  0
    3.7293   -0.6890   -0.0515 C   0  0
    5.1524   -1.5529   -0.1174 S   0  0
    2.4134   -1.0935   -0.0153 N   0  0
    1.9067   -2.4915   -0.0125 C   0  0  1  0  0  0
    2.1743   -3.3051   -1.3200 C   0  0
    2.7768   -4.7125   -1.1046 C   0  0
    2.0387   -5.4509    0.0071 C   0  0
    1.6475   -6.7922   -0.1051 C   0  0
    1.9275   -7.4915   -1.2290 F   0  0
    0.9654   -7.4230    0.9337 C   0  0
    0.6663   -6.7198    2.0964 C   0  0
    0.0039   -7.3290    3.1055 F   0  0
    1.0518   -5.3869    2.2186 C   0  0
    1.7414   -4.7435    1.1861 C   0  0
    2.1797   -3.2885    1.2940 C   0  0
   -1.6836    1.0108    0.0932 H   0  0
   -0.4653    1.7154   -0.7491 H   0  0
   -0.2720   -0.6736    0.9536 H   0  0
   -0.3109   -0.6598   -0.8368 H   0  0
    2.1555    2.1390    0.0413 H   0  0
    4.4444    1.2542   -0.0363 H   0  0
    0.8215   -2.4359   -0.0380 H   0  0
    1.2311   -3.4236   -1.8566 H   0  0
    2.8085   -2.7447   -2.0080 H   0  0
    2.7523   -5.2707   -2.0415 H   0  0
    3.8287   -4.6264   -0.8285 H   0  0
    0.6683   -8.4568    0.8365 H   0  0
    0.8176   -4.8502    3.1265 H   0  0
    3.2428   -3.2483    1.5288 H   0  0
    1.7544   -2.7626    2.1501 H   0  0
   -0.4346    1.7082    0.8966 H   0  0
  1  2  1  0
  1 21  1  0
  1 22  1  0
  1 36  1  0
  2  3  1  0
  2 23  1  0
  2 24  1  0
  3  4  2  0
  3  8  1  0
  4  5  1  0
  4 25  1  0
  5  6  1  0
  5 26  1  0
  6  7  2  0
  6  8  1  0
  8  9  1  0
  9 10  1  0
  9 20  1  0
  9 27  1  0
 10 11  1  0
 10 28  1  0
 10 29  1  0
 11 12  1  0
 11 30  1  0
 11 31  1  0
 12 13  2  0
 12 19  1  0
 13 14  1  0
 13 15  1  0
 15 16  2  0
 15 32  1  0
 16 17  1  0
 16 18  1  0
 18 19  2  0
 18 33  1  0
 19 20  1  0
 20 34  1  0
 20 35  1  0
M  CHG  1   1   1
M  END
> <Mol2_MolInfo_Name>
5723

> <Mol2_MolInfo_Type>
SMALL

> <Mol2_MolInfo_Charge>
USER_CHARGES

> <Mol2_Substructures>
     1 ****        1 GROUP             0       ****    0 ROOT    

> <Name>
5723

$$$$
5723
  SciTegic06232017503D

 35 37  0  0  0  0            999 V2000
   -0.6350    1.1425    0.1715 N   0  0
    0.0727   -0.1201    0.0746 C   0  0
    1.5931   -0.0012    0.0017 C   0  0
    2.3975    1.0589   -0.0119 C   0  0
    3.6474    0.6122   -0.0741 N   0  0
    3.7200   -0.7401   -0.0976 C   0  0
    5.1294   -1.6269   -0.1609 S   0  0
    2.3945   -1.1154   -0.0545 N   0  0
    1.8428   -2.4977   -0.0513 C   0  0  1  0  0  0
    2.1264   -3.3437   -1.3105 C   0  0
    1.3350   -4.6627   -1.3377 C   0  0
    1.3381   -5.4187   -0.0093 C   0  0
    0.9693   -6.7720    0.0242 C   0  0
    0.6558   -7.4159   -1.1242 F   0  0
    0.9058   -7.4729    1.2254 C   0  0
    1.2045   -6.8274    2.4184 C   0  0
    1.1421   -7.5010    3.5892 F   0  0
    1.5715   -5.4858    2.4027 C   0  0
    1.6520   -4.7663    1.2047 C   0  0
    2.1047   -3.3085    1.2402 C   0  0
   -0.5376    1.6495   -0.6967 H   0  0
   -1.6233    0.9679    0.2860 H   0  0
   -0.1941   -0.7166    0.9480 H   0  0
   -0.2940   -0.6444   -0.8087 H   0  0
    2.2083    2.1219    0.0209 H   0  0
    4.4778    1.1871   -0.0940 H   0  0
    0.7601   -2.4176   -0.1035 H   0  0
    1.8760   -2.7697   -2.2042 H   0  0
    3.1912   -3.5609   -1.3888 H   0  0
    0.2968   -4.4506   -1.5974 H   0  0
    1.7223   -5.2962   -2.1372 H   0  0
    0.6182   -8.5138    1.2300 H   0  0
    1.8104   -4.9977    3.3366 H   0  0
    3.1717   -3.2838    1.4589 H   0  0
    1.7115   -2.7640    2.1001 H   0  0
  1  2  1  0
  1 21  1  0
  1 22  1  0
  2  3  1  0
  2 23  1  0
  2 24  1  0
  3  4  2  0
  3  8  1  0
  4  5  1  0
  4 25  1  0
  5  6  1  0
  5 26  1  0
  6  7  2  0
  6  8  1  0
  8  9  1  0
  9 10  1  0
  9 20  1  0
  9 27  1  0
 10 11  1  0
 10 28  1  0
 10 29  1  0
 11 12  1  0
 11 30  1  0
 11 31  1  0
 12 13  2  0
 12 19  1  0
 13 14  1  0
 13 15  1  0
 15 16  2  0
 15 32  1  0
 16 17  1  0
 16 18  1  0
 18 19  2  0
 18 33  1  0
 19 20  1  0
 20 34  1  0
 20 35  1  0
M  END
> <Mol2_MolInfo_Name>
5723

> <Mol2_MolInfo_Type>
SMALL

> <Mol2_MolInfo_Charge>
USER_CHARGES

> <Mol2_Substructures>
     1 ****        1 GROUP             0       ****    0 ROOT    

> <Name>
5723

$$$$
6035
  SciTegic06232017503D

 21 22  0  0  0  0            999 V2000
   -0.0351    0.0112    0.0000 C   0  0
    1.4921   -0.0207    0.0000 C   0  0
    2.1595   -1.1995    0.0000 C   0  0
    3.6125   -1.3625    0.0000 C   0  0
    4.1771   -2.4571    0.0000 O   0  0
    4.3536   -0.0537    0.0000 C   0  0
    5.7583   -0.0705    0.0000 C   0  0
    6.4915    1.1126    0.0000 C   0  0
    5.8324    2.3358    0.0000 C   0  0
    4.4410    2.3747    0.0000 C   0  0
    3.6791    1.1937    0.0000 C   0  0
    2.1728    1.2975    0.0000 C   0  0
    1.6004    2.3903    0.0000 O   0  0
   -0.4707    1.0112    0.0000 H   0  0
   -0.4157   -0.5077    0.8806 H   0  0
   -0.4157   -0.5077   -0.8806 H   0  0
    1.5604   -2.0991    0.0000 H   0  0
    6.3017   -1.0051    0.0000 H   0  0
    7.5711    1.0798    0.0000 H   0  0
    6.3988    3.2554    0.0000 H   0  0
    3.9616    3.3437    0.0000 H   0  0
  1  2  1  0
  1 14  1  0
  1 15  1  0
  1 16  1  0
  2  3  2  0
  2 12  1  0
  3  4  1  0
  3 17  1  0
  4  5  2  0
  4  6  1  0
  6  7  2  0
  6 11  1  0
  7  8  1  0
  7 18  1  0
  8  9  2  0
  8 19  1  0
  9 10  1  0
  9 20  1  0
 10 11  2  0
 10 21  1  0
 11 12  1  0
 12 13  2  0
M  END
> <Mol2_MolInfo_Name>
6035

> <Mol2_MolInfo_Type>
SMALL

> <Mol2_MolInfo_Charge>
USER_CHARGES

> <Mol2_Substructures>
     1 ****        1 GROUP             0       ****    0 ROOT    

> <Name>
6035

$$$$
6323
  SciTegic06232017503D

 61 64  0  0  0  0            999 V2000
   -1.2045   -3.0048    2.2299 C   0  0
   -0.2375   -3.2954    1.0655 C   0  0  2  0  0  0
    1.0265   -4.0091    1.5700 C   0  0
    0.1182   -2.0857    0.3276 N   0  0
   -0.7605   -1.3746   -0.5155 C   0  0
   -2.0117   -1.9039   -0.8858 C   0  0
   -2.8358   -1.2145   -1.7765 C   0  0
   -2.4024   -0.0003   -2.3024 C   0  0
   -1.2044    0.4853   -1.9305 N   0  0
   -0.3698   -0.1260   -1.0579 C   0  0  2  0  0  0
    0.8690    0.5313   -0.7416 N   0  0
    1.3001    0.7596    0.6595 C   0  0
    2.8420    0.7039    0.7778 C   0  0
    3.4389    1.7098   -0.1258 N   0  0
    3.0419    1.4824   -1.5299 C   0  0
    1.4955    1.5225   -1.6508 C   0  0
    3.6228    2.9990    0.2843 C   0  0
    3.4327    3.9688   -0.4567 O   0  0
    4.1170    3.2353    1.6308 C   0  0
    4.7899    2.4003    2.5196 C   0  0
    5.0864    3.1467    3.7058 C   0  0
    5.7140    2.8469    4.9244 C   0  0
    5.8536    3.8443    5.8923 C   0  0
    6.4807    3.4862    7.0961 N   0  0
    7.1854    4.6290    8.2629 S   0  0
    7.7684    5.7432    7.5072 O   0  0
    8.0122    3.8287    9.1720 O   0  0
    5.6764    5.2363    9.2224 C   0  0
    5.3676    5.1331    5.6440 C   0  0
    4.7419    5.4757    4.4451 C   0  0
    4.6101    4.4672    3.4870 C   0  0
    4.0594    4.4796    2.2233 N   0  0
   -1.4737   -3.9217    2.7553 H   0  0
   -2.1330   -2.5495    1.8859 H   0  0
   -0.7586   -2.3259    2.9582 H   0  0
   -0.7284   -3.9818    0.3749 H   0  0
    0.7766   -4.9370    2.0857 H   0  0
    1.5914   -3.3851    2.2643 H   0  0
    1.6904   -4.2686    0.7441 H   0  0
    1.0232   -1.6803    0.5193 H   0  0
   -2.3570   -2.8536   -0.5069 H   0  0
   -3.7938   -1.6236   -2.0627 H   0  0
   -2.9642    0.6011   -3.0024 H   0  0
    0.9473    1.7525    0.9436 H   0  0
    0.8122    0.0985    1.3735 H   0  0
    3.2884    0.4855    1.7447 H   0  0
    3.1019   -0.2356    0.2871 H   0  0
    3.6383    1.9747   -2.2995 H   0  0
    3.3034    0.4376   -1.7054 H   0  0
    1.1871    1.3559   -2.6833 H   0  0
    1.1141    2.5086   -1.3810 H   0  0
    5.0591    1.3714    2.3361 H   0  0
    6.0875    1.8499    5.1091 H   0  0
    6.5067    2.5058    7.3345 H   0  0
    6.0081    5.9362    9.9885 H   0  0
    5.1895    4.3811    9.6901 H   0  0
    4.9819    5.7322    8.5470 H   0  0
    5.4725    5.9095    6.3846 H   0  0
    4.3803    6.4790    4.2734 H   0  0
    3.6412    5.2700    1.7537 H   0  0
   -0.9124    1.3710   -2.3189 H   0  0
  1  2  1  0
  1 33  1  0
  1 34  1  0
  1 35  1  0
  2  3  1  0
  2  4  1  0
  2 36  1  0
  3 37  1  0
  3 38  1  0
  3 39  1  0
  4  5  1  0
  4 40  1  0
  5  6  2  0
  5 10  1  0
  6  7  1  0
  6 41  1  0
  7  8  2  0
  7 42  1  0
  8  9  1  0
  8 43  1  0
  9 10  1  0
  9 61  1  0
 10 11  1  0
 11 12  1  0
 11 16  1  0
 12 13  1  0
 12 44  1  0
 12 45  1  0
 13 14  1  0
 13 46  1  0
 13 47  1  0
 14 15  1  0
 14 17  1  0
 15 16  1  0
 15 48  1  0
 15 49  1  0
 16 50  1  0
 16 51  1  0
 17 18  2  0
 17 19  1  0
 19 20  2  0
 19 32  1  0
 20 21  1  0
 20 52  1  0
 21 22  2  0
 21 31  1  0
 22 23  1  0
 22 53  1  0
 23 24  1  0
 23 29  2  0
 24 25  1  0
 24 54  1  0
 25 26  2  0
 25 27  2  0
 25 28  1  0
 28 55  1  0
 28 56  1  0
 28 57  1  0
 29 30  1  0
 29 58  1  0
 30 31  2  0
 30 59  1  0
 31 32  1  0
 32 60  1  0
M  END
> <Mol2_MolInfo_Name>
6323

> <Mol2_MolInfo_Type>
SMALL

> <Mol2_MolInfo_Charge>
USER_CHARGES

> <Mol2_Substructures>
     1 ****        1 GROUP             0       ****    0 ROOT    

> <Name>
6323

$$$$
6323
  SciTegic06232017503D

 60 63  0  0  0  0            999 V2000
   -1.0823   -4.1777    1.4320 C   0  0
   -0.7213   -3.6554    0.0286 C   0  0  2  0  0  0
    0.2454   -4.6162   -0.6822 C   0  0
   -0.1620   -2.3071    0.0757 N   0  0
   -0.9267   -1.1265    0.1989 C   0  0
   -2.3246   -1.1663    0.3429 C   0  0
   -3.0507    0.0107    0.5104 C   0  0
   -2.3592    1.2165    0.5339 C   0  0
   -1.0150    1.2910    0.3911 N   0  0
   -0.2961    0.1428    0.2219 C   0  0
    1.0771    0.3145    0.0204 N   0  0
    1.7994    1.4591    0.6098 C   0  0
    3.3429    1.3528    0.6088 C   0  0
    3.7822    1.0052   -0.7497 N   0  0
    3.2077   -0.2558   -1.2412 C   0  0
    1.6710   -0.1193   -1.2576 C   0  0
    4.7246    1.7657   -1.3846 C   0  0
    5.3106    2.6971   -0.8263 O   0  0
    5.0246    1.5216   -2.7838 C   0  0
    6.1832    1.8635   -3.4714 C   0  0
    5.9932    1.5697   -4.8604 C   0  0
    6.8022    1.6536   -6.0041 C   0  0
    6.2714    1.2837   -7.2444 C   0  0
    7.0390    1.3513   -8.4133 N   0  0
    8.6884    0.7019   -8.4745 S   0  0
    8.6050   -0.7081   -8.0789 O   0  0
    9.5508    1.6332   -7.7393 O   0  0
    9.0901    0.8068  -10.3131 C   0  0
    4.9475    0.8549   -7.3465 C   0  0
    4.1072    0.7644   -6.2365 C   0  0
    4.6509    1.1231   -4.9997 C   0  0
    4.0968    1.1558   -3.7380 N   0  0
   -1.5305   -5.1703    1.3783 H   0  0
   -1.7995   -3.5286    1.9347 H   0  0
   -0.2008   -4.2465    2.0710 H   0  0
   -1.6316   -3.6281   -0.5713 H   0  0
   -0.1827   -5.6158   -0.7655 H   0  0
    1.1921   -4.7036   -0.1470 H   0  0
    0.4686   -4.2751   -1.6940 H   0  0
    0.8384   -2.2157   -0.0289 H   0  0
   -2.8672   -2.0991    0.3387 H   0  0
   -4.1243   -0.0138    0.6258 H   0  0
   -2.8833    2.1516    0.6661 H   0  0
    1.5413    2.3237   -0.0046 H   0  0
    1.4473    1.6374    1.6268 H   0  0
    3.7772    2.2817    0.9811 H   0  0
    3.6561    0.5670    1.2973 H   0  0
    3.5969   -0.5839   -2.2011 H   0  0
    3.4853   -1.0567   -0.5547 H   0  0
    1.2304   -1.0474   -1.6176 H   0  0
    1.4239    0.6568   -1.9842 H   0  0
    7.0754    2.2628   -3.0109 H   0  0
    7.8198    2.0035   -5.9185 H   0  0
    6.5225    1.2987   -9.2786 H   0  0
   10.0999    0.4304  -10.4741 H   0  0
    9.0254    1.8468  -10.6316 H   0  0
    8.3743    0.2011  -10.8678 H   0  0
    4.5502    0.5802   -8.3134 H   0  0
    3.0847    0.4310   -6.3375 H   0  0
    3.1442    0.9293   -3.4911 H   0  0
  1  2  1  0
  1 33  1  0
  1 34  1  0
  1 35  1  0
  2  3  1  0
  2  4  1  0
  2 36  1  0
  3 37  1  0
  3 38  1  0
  3 39  1  0
  4  5  1  0
  4 40  1  0
  5  6  2  0
  5 10  1  0
  6  7  1  0
  6 41  1  0
  7  8  2  0
  7 42  1  0
  8  9  1  0
  8 43  1  0
  9 10  2  0
 10 11  1  0
 11 12  1  0
 11 16  1  0
 12 13  1  0
 12 44  1  0
 12 45  1  0
 13 14  1  0
 13 46  1  0
 13 47  1  0
 14 15  1  0
 14 17  1  0
 15 16  1  0
 15 48  1  0
 15 49  1  0
 16 50  1  0
 16 51  1  0
 17 18  2  0
 17 19  1  0
 19 20  2  0
 19 32  1  0
 20 21  1  0
 20 52  1  0
 21 22  2  0
 21 31  1  0
 22 23  1  0
 22 53  1  0
 23 24  1  0
 23 29  2  0
 24 25  1  0
 24 54  1  0
 25 26  2  0
 25 27  2  0
 25 28  1  0
 28 55  1  0
 28 56  1  0
 28 57  1  0
 29 30  1  0
 29 58  1  0
 30 31  2  0
 30 59  1  0
 31 32  1  0
 32 60  1  0
M  END
> <Mol2_MolInfo_Name>
6323

> <Mol2_MolInfo_Type>
SMALL

> <Mol2_MolInfo_Charge>
USER_CHARGES

> <Mol2_Substructures>
     1 ****        1 GROUP             0       ****    0 ROOT    

> <Name>
6323

$$$$
6475
  SciTegic06232017503D

 35 36  0  0  0  0            999 V2000
   -0.7491    1.3274   -0.5806 C   0  0
    0.0855    0.0649   -0.2531 C   0  0  1  0  0  0
    1.5723    0.4226    0.0341 C   0  0
    2.2615    1.1031   -1.0713 N   0  0
    3.5282    1.6924   -0.5997 C   0  0
    4.2716    2.4164   -1.7488 C   0  0
    5.0528    3.3463   -1.5597 O   0  0
    4.0262    1.9393   -2.9858 N   0  0
    3.1575    0.9970   -3.4050 C   0  0
    3.0288    0.7281   -4.5974 O   0  0
    2.3677    0.2708   -2.2870 C   0  0
   -0.4855   -0.7041    0.9862 N   0  3  2  0  0  0
    0.0480   -2.1638    1.0541 C   0  0
   -0.6853   -3.0895    0.0453 C   0  0
   -0.0660   -4.0843   -0.3250 O   0  0
   -1.9107   -2.7846   -0.3374 N   0  0
   -2.6222   -1.7357    0.0285 C   0  0
   -3.7524   -1.4784   -0.3802 O   0  0
   -2.0353   -0.7627    1.0829 C   0  0
   -0.3012    1.8987   -1.3939 H   0  0
   -0.8278    1.9928    0.2798 H   0  0
   -1.7556    1.0772   -0.9154 H   0  0
   -0.0006   -0.6408   -1.0793 H   0  0
    1.5934    1.0681    0.9142 H   0  0
    2.1535   -0.4612    0.2941 H   0  0
    3.3308    2.4238    0.1861 H   0  0
    4.1819    0.9311   -0.1697 H   0  0
    4.5377    2.3994   -3.7244 H   0  0
    2.8485   -0.6844   -2.0684 H   0  0
    1.3791    0.0455   -2.6872 H   0  0
    1.1270   -2.1768    0.9132 H   0  0
   -0.1688   -2.5028    2.0681 H   0  0
   -2.2446   -1.1540    2.0797 H   0  0
   -2.4553    0.2409    1.0290 H   0  0
   -0.1518   -0.2070    1.7998 H   0  0
  1  2  1  0
  1 20  1  0
  1 21  1  0
  1 22  1  0
  2  3  1  0
  2 12  1  0
  2 23  1  0
  3  4  1  0
  3 24  1  0
  3 25  1  0
  4  5  1  0
  4 11  1  0
  5  6  1  0
  5 26  1  0
  5 27  1  0
  6  7  2  0
  6  8  1  0
  8  9  1  0
  8 28  1  0
  9 10  2  0
  9 11  1  0
 11 29  1  0
 11 30  1  0
 12 13  1  0
 12 19  1  0
 12 35  1  0
 13 14  1  0
 13 31  1  0
 13 32  1  0
 14 15  2  0
 14 16  1  0
 16 17  1  0
 17 18  2  0
 17 19  1  0
 19 33  1  0
 19 34  1  0
M  CHG  1  12   1
M  END
> <Mol2_MolInfo_Name>
6475

> <Mol2_MolInfo_Type>
SMALL

> <Mol2_MolInfo_Charge>
USER_CHARGES

> <Mol2_Substructures>
     1 ****        1 GROUP             0       ****    0 ROOT    

> <Name>
6475

$$$$
6475
  SciTegic06232017503D

 36 37  0  0  0  0            999 V2000
   -0.7651    1.2096   -0.4510 C   0  0
    0.0776   -0.0432   -0.1064 C   0  0  1  0  0  0
    1.5858    0.3065    0.0753 C   0  0
    2.1957    1.0058   -1.0643 N   0  0
    3.5005    1.5761   -0.6807 C   0  0
    4.1601    2.3183   -1.8694 C   0  0
    4.9650    3.2355   -1.7228 O   0  0
    3.8118    1.8724   -3.0934 N   0  0
    2.9013    0.9487   -3.4627 C   0  0
    2.6674    0.7136   -4.6460 O   0  0
    2.2022    0.1985   -2.3012 C   0  0
   -0.5218   -0.7099    1.1799 N   0  3  1  0  0  0
   -1.8724   -1.4261    0.8946 C   0  0
   -1.6751   -2.7848    0.1782 C   0  0
   -2.5425   -3.3037   -0.5196 O   0  0
   -0.4703   -3.3698    0.3701 N   0  0
    0.5994   -3.0094    1.1150 C   0  0
    1.6255   -3.6830    1.1554 O   0  0
    0.4162   -1.7029    1.9192 C   0  0
   -0.3738    1.7233   -1.3294 H   0  0
   -0.7634    1.9281    0.3696 H   0  0
   -1.8018    0.9748   -0.6850 H   0  0
   -0.0302   -0.7975   -0.8861 H   0  0
    1.6838    0.9306    0.9657 H   0  0
    2.1727   -0.5953    0.2540 H   0  0
    3.3712    2.2930    0.1322 H   0  0
    4.1787    0.8012   -0.3180 H   0  0
    4.2674    2.3457   -3.8600 H   0  0
    2.6977   -0.7609   -2.1415 H   0  0
    1.1843   -0.0190   -2.6249 H   0  0
   -2.3314   -1.5978    1.8693 H   0  0
   -2.5239   -0.7673    0.3245 H   0  0
   -0.3526   -4.2420   -0.1253 H   0  0
    1.3619   -1.2149    2.1503 H   0  0
   -0.0757   -1.9293    2.8664 H   0  0
   -0.7091    0.0513    1.8179 H   0  0
  1  2  1  0
  1 20  1  0
  1 21  1  0
  1 22  1  0
  2  3  1  0
  2 12  1  0
  2 23  1  0
  3  4  1  0
  3 24  1  0
  3 25  1  0
  4  5  1  0
  4 11  1  0
  5  6  1  0
  5 26  1  0
  5 27  1  0
  6  7  2  0
  6  8  1  0
  8  9  1  0
  8 28  1  0
  9 10  2  0
  9 11  1  0
 11 29  1  0
 11 30  1  0
 12 13  1  0
 12 19  1  0
 12 36  1  0
 13 14  1  0
 13 31  1  0
 13 32  1  0
 14 15  2  0
 14 16  1  0
 16 17  1  0
 16 33  1  0
 17 18  2  0
 17 19  1  0
 19 34  1  0
 19 35  1  0
M  CHG  1  12   1
M  END
> <Mol2_MolInfo_Name>
6475

> <Mol2_MolInfo_Type>
SMALL

> <Mol2_MolInfo_Charge>
USER_CHARGES

> <Mol2_Substructures>
     1 ****        1 GROUP             0       ****    0 ROOT    

> <Name>
6475

$$$$
6475
  SciTegic06232017503D

 35 36  0  0  0  0            999 V2000
   -0.5840    1.3496    0.0046 C   0  0
   -0.1362   -0.1354    0.1093 C   0  0  1  0  0  0
    1.4221   -0.2365    0.0631 C   0  0
    2.0378    0.4926   -1.1656 N   0  3  2  0  0  0
    1.7260   -0.2242   -2.5041 C   0  0
    2.6122   -1.4820   -2.6994 C   0  0
    2.1568   -2.3539   -3.4358 O   0  0
    3.7894   -1.5433   -2.1071 N   0  0
    4.3276   -0.6535   -1.2952 C   0  0
    5.4271   -0.7744   -0.7600 O   0  0
    3.5682    0.6666   -1.0007 C   0  0
   -0.7096   -0.8016    1.3115 N   0  0
   -2.1870   -0.6911    1.3769 C   0  0
   -2.7820   -1.4087    2.6123 C   0  0
   -3.8690   -1.1089    3.1019 O   0  0
   -2.0433   -2.4172    3.1088 N   0  0
   -0.8255   -2.8658    2.7550 C   0  0
   -0.2783   -3.7827    3.3643 O   0  0
   -0.1910   -2.1747    1.5238 C   0  0
   -0.1159    1.8621   -0.8350 H   0  0
   -0.3284    1.9071    0.9067 H   0  0
   -1.6544    1.4534   -0.1678 H   0  0
   -0.5397   -0.6651   -0.7543 H   0  0
    1.8634    0.2444    0.9378 H   0  0
    1.7938   -1.2585   -0.0046 H   0  0
    0.6609   -0.4473   -2.5553 H   0  0
    1.9676    0.5038   -3.2795 H   0  0
    3.8540    1.4157   -1.7404 H   0  0
    3.7725    1.0588   -0.0032 H   0  0
   -2.4990    0.3483    1.4704 H   0  0
   -2.6511   -1.0875    0.4721 H   0  0
   -2.4527   -2.8886    3.9021 H   0  0
   -0.3461   -2.7947    0.6391 H   0  0
    0.8797   -2.1601    1.7248 H   0  0
    1.6196    1.4119   -1.1881 H   0  0
  1  2  1  0
  1 20  1  0
  1 21  1  0
  1 22  1  0
  2  3  1  0
  2 12  1  0
  2 23  1  0
  3  4  1  0
  3 24  1  0
  3 25  1  0
  4  5  1  0
  4 11  1  0
  4 35  1  0
  5  6  1  0
  5 26  1  0
  5 27  1  0
  6  7  2  0
  6  8  1  0
  8  9  1  0
  9 10  2  0
  9 11  1  0
 11 28  1  0
 11 29  1  0
 12 13  1  0
 12 19  1  0
 13 14  1  0
 13 30  1  0
 13 31  1  0
 14 15  2  0
 14 16  1  0
 16 17  1  0
 16 32  1  0
 17 18  2  0
 17 19  1  0
 19 33  1  0
 19 34  1  0
M  CHG  1   4   1
M  END
> <Mol2_MolInfo_Name>
6475

> <Mol2_MolInfo_Type>
SMALL

> <Mol2_MolInfo_Charge>
USER_CHARGES

> <Mol2_Substructures>
     1 ****        1 GROUP             0       ****    0 ROOT    

> <Name>
6475

$$$$
6475
  SciTegic06232017503D

 36 37  0  0  0  0            999 V2000
   -0.6127    1.3562   -0.0591 C   0  0
   -0.0954   -0.1084    0.0155 C   0  0  1  0  0  0
    1.4659   -0.1440   -0.0550 C   0  0
    2.0505    0.6796   -1.2397 N   0  3  1  0  0  0
    3.5866    0.8269   -1.1081 C   0  0
    4.3335   -0.4654   -1.5126 C   0  0
    5.4527   -0.7471   -1.0926 O   0  0
    3.6726   -1.2733   -2.3729 N   0  0
    2.4672   -1.1651   -2.9769 C   0  0
    2.0543   -2.0216   -3.7544 O   0  0
    1.6623    0.1073   -2.6264 C   0  0
   -0.6125   -0.8206    1.2168 N   0  0
   -2.0884   -0.7436    1.3449 C   0  0
   -2.6219   -1.5170    2.5753 C   0  0
   -3.7002   -1.2644    3.1086 O   0  0
   -1.8389   -2.5178    3.0160 N   0  0
   -0.6236   -2.9228    2.6059 C   0  0
   -0.0260   -3.8350    3.1730 O   0  0
   -0.0594   -2.1883    1.3659 C   0  0
   -0.1939    1.8998   -0.9051 H   0  0
   -0.3610    1.9152    0.8432 H   0  0
   -1.6914    1.4109   -0.2017 H   0  0
   -0.4913   -0.6434   -0.8485 H   0  0
    1.8986    0.3023    0.8421 H   0  0
    1.8697   -1.1474   -0.1855 H   0  0
    3.8690    1.6358   -1.7833 H   0  0
    3.8149    1.1258   -0.0841 H   0  0
    4.1811   -2.1102   -2.6203 H   0  0
    0.5883   -0.0721   -2.6468 H   0  0
    1.8960    0.8922   -3.3468 H   0  0
   -2.4156    0.2855    1.4891 H   0  0
   -2.5806   -1.1160    0.4449 H   0  0
   -2.2056   -3.0210    3.8106 H   0  0
   -0.2472   -2.7875    0.4732 H   0  0
    1.0190   -2.1608    1.5168 H   0  0
    1.6498    1.6038   -1.1568 H   0  0
  1  2  1  0
  1 20  1  0
  1 21  1  0
  1 22  1  0
  2  3  1  0
  2 12  1  0
  2 23  1  0
  3  4  1  0
  3 24  1  0
  3 25  1  0
  4  5  1  0
  4 11  1  0
  4 36  1  0
  5  6  1  0
  5 26  1  0
  5 27  1  0
  6  7  2  0
  6  8  1  0
  8  9  1  0
  8 28  1  0
  9 10  2  0
  9 11  1  0
 11 29  1  0
 11 30  1  0
 12 13  1  0
 12 19  1  0
 13 14  1  0
 13 31  1  0
 13 32  1  0
 14 15  2  0
 14 16  1  0
 16 17  1  0
 16 33  1  0
 17 18  2  0
 17 19  1  0
 19 34  1  0
 19 35  1  0
M  CHG  1   4   1
M  END
> <Mol2_MolInfo_Name>
6475

> <Mol2_MolInfo_Type>
SMALL

> <Mol2_MolInfo_Charge>
USER_CHARGES

> <Mol2_Substructures>
     1 ****        1 GROUP             0       ****    0 ROOT    

> <Name>
6475

$$$$
7017
  SciTegic06232017503D

 46 50  0  0  0  0            999 V2000
   -3.4951    0.0326    0.4386 C   0  0
   -2.8209    0.3870   -0.8997 N   0  3  2  0  0  0
   -1.8763   -0.7020   -1.4590 C   0  0
   -0.5935    0.1092   -1.7399 C   0  0  1  0  0  0
   -1.1461    1.4581   -2.1825 C   0  0
   -1.9009    1.6366   -0.8823 C   0  0  2  0  0  0
   -0.7478    1.4373    0.1216 C   0  0
    0.0660    0.3552   -0.4473 N   0  0
    1.4505    0.2810   -0.2787 C   0  0
    2.2942    1.2194   -0.8781 C   0  0
    3.6869    1.1486   -0.7213 C   0  0
    4.5575    2.0803   -1.3402 N   0  0
    5.9137    2.0403   -1.0561 C   0  0
    6.5525    1.1025   -0.3034 C   0  0
    8.1095    1.2766   -0.1392 C   0  0
    8.6672    0.4233    0.5862 O   0  0
    8.6382    2.2401   -0.7418 O   0  5
    5.7407    0.0108    0.3007 C   0  0
    6.2092   -0.9180    0.9626 O   0  0
    4.2507    0.1228    0.0707 C   0  0
    3.3903   -0.8158    0.6615 C   0  0
    2.0097   -0.7413    0.4912 C   0  0
    1.2199   -1.6691    1.0834 F   0  0
    4.0548    3.1455   -2.2171 C   0  0  2  0  0  0
    3.4579    2.7281   -3.5511 C   0  0
    4.7857    3.4261   -3.5228 C   0  0
   -2.7277   -0.2694    1.1514 H   0  0
   -4.1804   -0.7885    0.2268 H   0  0
   -4.0333    0.9217    0.7686 H   0  0
   -1.7229   -1.5093   -0.7391 H   0  0
   -2.3243   -1.0667   -2.3843 H   0  0
    0.0651   -0.3722   -2.4647 H   0  0
   -0.3765    2.2144   -2.3515 H   0  0
   -1.7858    1.4081   -3.0664 H   0  0
   -2.4967    2.5437   -0.7737 H   0  0
   -0.1540    2.3499    0.1991 H   0  0
   -1.0882    1.1928    1.1271 H   0  0
    1.8519    2.0072   -1.4688 H   0  0
    6.4591    2.8613   -1.5015 H   0  0
    3.7845   -1.6178    1.2703 H   0  0
    3.5729    3.9694   -1.6898 H   0  0
    3.4239    1.6680   -3.8051 H   0  0
    2.5823    3.2673   -3.9128 H   0  0
    4.8500    4.4603   -3.8610 H   0  0
    5.6806    2.8556   -3.7739 H   0  0
   -3.5307    0.5711   -1.5950 H   0  0
  1  2  1  0
  1 27  1  0
  1 28  1  0
  1 29  1  0
  2  3  1  0
  2  6  1  0
  2 46  1  0
  3  4  1  0
  3 30  1  0
  3 31  1  0
  4  5  1  0
  4  8  1  0
  4 32  1  0
  5  6  1  0
  5 33  1  0
  5 34  1  0
  6  7  1  0
  6 35  1  0
  7  8  1  0
  7 36  1  0
  7 37  1  0
  8  9  1  0
  9 10  2  0
  9 22  1  0
 10 11  1  0
 10 38  1  0
 11 12  1  0
 11 20  2  0
 12 13  1  0
 12 24  1  0
 13 14  2  0
 13 39  1  0
 14 15  1  0
 14 18  1  0
 15 16  2  0
 15 17  1  0
 18 19  2  0
 18 20  1  0
 20 21  1  0
 21 22  2  0
 21 40  1  0
 22 23  1  0
 24 25  1  0
 24 26  1  0
 24 41  1  0
 25 26  1  0
 25 42  1  0
 25 43  1  0
 26 44  1  0
 26 45  1  0
M  CHG  2   2   1  17  -1
M  END
> <Mol2_MolInfo_Name>
7017

> <Mol2_MolInfo_Type>
SMALL

> <Mol2_MolInfo_Charge>
USER_CHARGES

> <Mol2_Substructures>
     1 ****        1 GROUP             0       ****    0 ROOT    

> <Name>
7017

$$$$
7017
  SciTegic06232017503D

 47 51  0  0  0  0            999 V2000
   -3.4692    0.0380    0.4859 C   0  0
   -2.8161    0.4011   -0.8608 N   0  3  2  0  0  0
   -1.8878   -0.6873   -1.4480 C   0  0
   -0.6062    0.1202   -1.7468 C   0  0  1  0  0  0
   -1.1604    1.4765   -2.1642 C   0  0
   -1.8887    1.6449   -0.8473 C   0  0  2  0  0  0
   -0.7181    1.4273    0.1323 C   0  0
    0.0811    0.3497   -0.4657 N   0  0
    1.4690    0.2733   -0.3278 C   0  0
    2.2979    1.2387   -0.9043 C   0  0
    3.6931    1.1694   -0.7753 C   0  0
    4.5481    2.1286   -1.3740 N   0  0
    5.8976    2.1282   -1.0626 C   0  0
    6.5520    1.1754   -0.3433 C   0  0
    7.9940    1.2915   -0.0990 C   0  0
    8.6559    0.4869    0.5569 O   0  0
    8.5785    2.3919   -0.6649 O   0  0
    5.7688    0.0233    0.1986 C   0  0
    6.2477   -0.9357    0.8102 O   0  0
    4.2757    0.1235   -0.0230 C   0  0
    3.4301   -0.8463    0.5388 C   0  0
    2.0467   -0.7765    0.3897 C   0  0
    1.2721   -1.7336    0.9544 F   0  0
    4.0632    3.1696   -2.2887 C   0  0  2  0  0  0
    3.3144    2.7306   -3.5400 C   0  0
    4.7091    3.2612   -3.6640 C   0  0
   -2.6910   -0.2762    1.1816 H   0  0
   -4.1642   -0.7764    0.2789 H   0  0
   -3.9945    0.9279    0.8343 H   0  0
   -1.7252   -1.5017   -0.7383 H   0  0
   -2.3557   -1.0419   -2.3674 H   0  0
    0.0347   -0.3571   -2.4900 H   0  0
   -0.3905    2.2308   -2.3411 H   0  0
   -1.8177    1.4384   -3.0360 H   0  0
   -2.4773    2.5540   -0.7159 H   0  0
   -0.1198    2.3368    0.2117 H   0  0
   -1.0407    1.1705    1.1405 H   0  0
    1.8409    2.0499   -1.4504 H   0  0
    6.4173    2.9887   -1.4634 H   0  0
    9.5196    2.4357   -0.4819 H   0  0
    3.8374   -1.6672    1.1127 H   0  0
    3.7668    4.0976   -1.7984 H   0  0
    3.1415    1.6678   -3.7134 H   0  0
    2.4805    3.3444   -3.8809 H   0  0
    4.8639    4.2512   -4.0931 H   0  0
    5.5137    2.5711   -3.9215 H   0  0
   -3.5367    0.5960   -1.5417 H   0  0
  1  2  1  0
  1 27  1  0
  1 28  1  0
  1 29  1  0
  2  3  1  0
  2  6  1  0
  2 47  1  0
  3  4  1  0
  3 30  1  0
  3 31  1  0
  4  5  1  0
  4  8  1  0
  4 32  1  0
  5  6  1  0
  5 33  1  0
  5 34  1  0
  6  7  1  0
  6 35  1  0
  7  8  1  0
  7 36  1  0
  7 37  1  0
  8  9  1  0
  9 10  2  0
  9 22  1  0
 10 11  1  0
 10 38  1  0
 11 12  1  0
 11 20  2  0
 12 13  1  0
 12 24  1  0
 13 14  2  0
 13 39  1  0
 14 15  1  0
 14 18  1  0
 15 16  2  0
 15 17  1  0
 17 40  1  0
 18 19  2  0
 18 20  1  0
 20 21  1  0
 21 22  2  0
 21 41  1  0
 22 23  1  0
 24 25  1  0
 24 26  1  0
 24 42  1  0
 25 26  1  0
 25 43  1  0
 25 44  1  0
 26 45  1  0
 26 46  1  0
M  CHG  1   2   1
M  END
> <Mol2_MolInfo_Name>
7017

> <Mol2_MolInfo_Type>
SMALL

> <Mol2_MolInfo_Charge>
USER_CHARGES

> <Mol2_Substructures>
     1 ****        1 GROUP             0       ****    0 ROOT    

> <Name>
7017

$$$$
7040
  SciTegic06232017503D

 42 44  0  0  0  0            999 V2000
   -5.0503   -0.7397    0.5233 C   0  0
   -3.8828   -1.2468   -0.1137 O   0  0
   -2.6516   -0.6927    0.1856 C   0  0
   -2.4664    0.3678    1.0940 C   0  0
   -1.1821    0.8520    1.3454 C   0  0
   -0.1317    0.2925    0.7187 N   0  0
   -0.2453   -0.7258   -0.1578 C   0  0
    1.0304   -1.2513   -0.7969 C   0  0
    1.4939   -0.1860   -2.2435 S   0  0  1  0  0  0
    1.9104    1.1728   -1.6761 O   0  0
    3.0631   -1.0534   -2.6402 C   0  0
    3.1941   -2.2809   -3.0764 N   0  0
    4.5471   -2.4503   -3.2194 C   0  0
    5.2551   -3.5790   -3.6557 C   0  0
    6.6585   -3.5125   -3.7188 C   0  0
    7.4642   -4.5544   -4.1378 O   0  0
    6.8967   -5.8431   -4.3577 C   0  0  1  0  0  0
    6.2449   -5.8873   -5.5204 F   0  0
    7.8771   -6.7440   -4.3807 F   0  0
    7.3173   -2.3332   -3.3577 C   0  0
    6.6437   -1.1909   -2.9190 C   0  0
    5.2521   -1.2753   -2.8575 C   0  0
    4.2607   -0.3955   -2.4898 N   0  0
   -1.5206   -1.2320   -0.4559 C   0  0
   -1.6457   -2.2694   -1.3493 O   0  0
   -2.1090   -1.8873   -2.6386 C   0  0
   -5.9208   -1.2932    0.1713 H   0  0
   -5.2112    0.3129    0.2862 H   0  0
   -4.9998   -0.8602    1.6066 H   0  0
   -3.2988    0.8215    1.6102 H   0  0
   -0.9548    1.6609    2.0248 H   0  0
    1.8422   -1.2591   -0.0681 H   0  0
    0.8934   -2.2782   -1.1383 H   0  0
    4.7170   -4.4705   -3.9396 H   0  0
    6.2253   -6.1542   -3.5557 H   0  0
    8.3958   -2.3014   -3.4183 H   0  0
    7.1796   -0.2939   -2.6453 H   0  0
    4.3383    0.5586   -2.1672 H   0  0
   -2.1061   -2.7578   -3.2945 H   0  0
   -1.4631   -1.1317   -3.0895 H   0  0
   -3.1285   -1.5001   -2.6088 H   0  0
    0.7910    0.6567    0.9105 H   0  0
  1  2  1  0
  1 27  1  0
  1 28  1  0
  1 29  1  0
  2  3  1  0
  3  4  2  0
  3 24  1  0
  4  5  1  0
  4 30  1  0
  5  6  1  0
  5 31  1  0
  6  7  1  0
  6 42  1  0
  7  8  1  0
  7 24  2  0
  8  9  1  0
  8 32  1  0
  8 33  1  0
  9 10  2  0
  9 11  1  0
 11 12  2  0
 11 23  1  0
 12 13  1  0
 13 14  2  0
 13 22  1  0
 14 15  1  0
 14 34  1  0
 15 16  1  0
 15 20  2  0
 16 17  1  0
 17 18  1  0
 17 19  1  0
 17 35  1  0
 20 21  1  0
 20 36  1  0
 21 22  2  0
 21 37  1  0
 22 23  1  0
 23 38  1  0
 24 25  1  0
 25 26  1  0
 26 39  1  0
 26 40  1  0
 26 41  1  0
M  END
> <Mol2_MolInfo_Name>
7040

> <Mol2_MolInfo_Type>
SMALL

> <Mol2_MolInfo_Charge>
USER_CHARGES

> <Mol2_Substructures>
     1 ****        1 GROUP             0       ****    0 ROOT    

> <Name>
7040

$$$$
7040
  SciTegic06232017503D

 41 43  0  0  0  0            999 V2000
   -3.3133   -3.2840   -1.5328 C   0  0
   -2.0976   -2.6340   -1.1789 O   0  0
   -2.1231   -1.6107   -0.2492 C   0  0
   -3.2955   -1.1410    0.3698 C   0  0
   -3.2017   -0.1167    1.3110 C   0  0
   -2.0251    0.4530    1.6666 N   0  0
   -0.8933    0.0020    1.0668 C   0  0
    0.3959    0.6705    1.5201 C   0  0
    1.1231   -0.2637    2.9490 S   0  0  1  0  0  0
    1.5581   -1.6324    2.4204 O   0  0
    2.6653    0.7254    3.0675 C   0  0
    2.7718    1.9776    3.4352 N   0  0
    4.1132    2.2461    3.3469 C   0  0
    4.7953    3.4401    3.6207 C   0  0
    6.1910    3.4740    3.4512 C   0  0
    6.9721    4.5883    3.6929 O   0  0
    6.3508    5.8463    3.9423 C   0  0  1  0  0  0
    5.8890    5.9133    5.1916 F   0  0
    7.2514    6.8111    3.7648 F   0  0
    6.8697    2.3274    3.0268 C   0  0
    6.2222    1.1224    2.7451 C   0  0
    4.8370    1.1077    2.9125 C   0  0
    3.8685    0.1462    2.7427 N   0  0
   -0.8988   -1.0157    0.1005 C   0  0
    0.2834   -1.4421   -0.4570 O   0  0
    0.5118   -0.9798   -1.7818 C   0  0
   -3.1040   -4.0637   -2.2649 H   0  0
   -4.0226   -2.5892   -1.9847 H   0  0
   -3.7784   -3.7599   -0.6683 H   0  0
   -4.2662   -1.5536    0.1413 H   0  0
   -4.0860    0.2613    1.8028 H   0  0
    1.1153    0.7009    0.7014 H   0  0
    0.2083    1.7027    1.8203 H   0  0
    4.2447    4.3042    3.9594 H   0  0
    5.5395    6.0647    3.2460 H   0  0
    7.9427    2.3728    2.9083 H   0  0
    6.7720    0.2528    2.4161 H   0  0
    3.9632   -0.8128    2.4394 H   0  0
    1.4889   -1.3240   -2.1201 H   0  0
    0.5100    0.1106   -1.8290 H   0  0
   -0.2328   -1.3592   -2.4827 H   0  0
  1  2  1  0
  1 27  1  0
  1 28  1  0
  1 29  1  0
  2  3  1  0
  3  4  2  0
  3 24  1  0
  4  5  1  0
  4 30  1  0
  5  6  2  0
  5 31  1  0
  6  7  1  0
  7  8  1  0
  7 24  2  0
  8  9  1  0
  8 32  1  0
  8 33  1  0
  9 10  2  0
  9 11  1  0
 11 12  2  0
 11 23  1  0
 12 13  1  0
 13 14  2  0
 13 22  1  0
 14 15  1  0
 14 34  1  0
 15 16  1  0
 15 20  2  0
 16 17  1  0
 17 18  1  0
 17 19  1  0
 17 35  1  0
 20 21  1  0
 20 36  1  0
 21 22  2  0
 21 37  1  0
 22 23  1  0
 23 38  1  0
 24 25  1  0
 25 26  1  0
 26 39  1  0
 26 40  1  0
 26 41  1  0
M  END
> <Mol2_MolInfo_Name>
7040

> <Mol2_MolInfo_Type>
SMALL

> <Mol2_MolInfo_Charge>
USER_CHARGES

> <Mol2_Substructures>
     1 ****        1 GROUP             0       ****    0 ROOT    

> <Name>
7040

$$$$
7231
  SciTegic06232017503D

 47 49  0  0  0  0            999 V2000
    0.0255    2.2425   -3.5863 C   0  0
   -0.4669    1.6415   -2.3986 O   0  0
   -0.0034    2.2718   -1.2123 C   0  0
   -0.5675    1.5395    0.0171 C   0  0
   -0.1600    0.0597    0.1078 C   0  0
    1.2609   -0.0357    0.1685 O   0  0
    1.8680   -1.2783    0.1416 C   0  0
    1.1541   -2.4893    0.2258 C   0  0
    1.8367   -3.7040    0.2025 C   0  0
    3.1767   -3.7029    0.1060 N   0  0
    3.9197   -2.5803    0.0283 C   0  0
    5.4270   -2.7683   -0.0810 C   0  0
    5.9029   -3.0297   -1.8554 S   0  0  2  0  0  0
    5.3003   -4.3704   -2.2814 O   0  0
    7.6777   -3.3715   -1.5344 C   0  0
    8.5794   -2.5191   -1.1163 N   0  0
    9.7305   -3.2582   -1.0239 C   0  0
   11.0132   -2.8548   -0.6244 C   0  0
   12.0302   -3.8109   -0.6139 C   0  0
   11.7867   -5.1338   -0.9874 C   0  0
   10.5214   -5.5691   -1.3905 C   0  0
    9.5059   -4.6085   -1.4012 C   0  0
    8.1697   -4.6408   -1.7255 N   0  0
    3.2737   -1.3281    0.0375 C   0  0
    4.0848   -0.0402   -0.0889 C   0  0
   -0.3721    1.7146   -4.4530 H   0  0
    1.1143    2.1922   -3.6354 H   0  0
   -0.2813    3.2868   -3.6617 H   0  0
    1.0879    2.2714   -1.1791 H   0  0
   -0.3275    3.3139   -1.1939 H   0  0
   -0.2427    2.0565    0.9209 H   0  0
   -1.6558    1.6113    0.0083 H   0  0
   -0.6018   -0.3834    1.0020 H   0  0
   -0.5473   -0.4831   -0.7568 H   0  0
    0.0783   -2.5068    0.3113 H   0  0
    1.3643   -4.6741    0.2598 H   0  0
    5.9621   -1.9048    0.3141 H   0  0
    5.7408   -3.6299    0.5106 H   0  0
   11.2136   -1.8341   -0.3326 H   0  0
   13.0258   -3.5218   -0.3100 H   0  0
   12.6020   -5.8424   -0.9641 H   0  0
   10.3460   -6.5957   -1.6770 H   0  0
    7.6074   -5.4162   -2.0463 H   0  0
    4.6009    0.1784    0.8462 H   0  0
    3.4763    0.8211   -0.3656 H   0  0
    4.8380   -0.1394   -0.8715 H   0  0
    3.6552   -4.5925    0.0859 H   0  0
  1  2  1  0
  1 26  1  0
  1 27  1  0
  1 28  1  0
  2  3  1  0
  3  4  1  0
  3 29  1  0
  3 30  1  0
  4  5  1  0
  4 31  1  0
  4 32  1  0
  5  6  1  0
  5 33  1  0
  5 34  1  0
  6  7  1  0
  7  8  2  0
  7 24  1  0
  8  9  1  0
  8 35  1  0
  9 10  1  0
  9 36  1  0
 10 11  1  0
 10 47  1  0
 11 12  1  0
 11 24  2  0
 12 13  1  0
 12 37  1  0
 12 38  1  0
 13 14  2  0
 13 15  1  0
 15 16  2  0
 15 23  1  0
 16 17  1  0
 17 18  2  0
 17 22  1  0
 18 19  1  0
 18 39  1  0
 19 20  2  0
 19 40  1  0
 20 21  1  0
 20 41  1  0
 21 22  2  0
 21 42  1  0
 22 23  1  0
 23 43  1  0
 24 25  1  0
 25 44  1  0
 25 45  1  0
 25 46  1  0
M  END
> <Mol2_MolInfo_Name>
7231

> <Mol2_MolInfo_Type>
SMALL

> <Mol2_MolInfo_Charge>
USER_CHARGES

> <Mol2_Substructures>
     1 ****        1 GROUP             0       ****    0 ROOT    

> <Name>
7231

$$$$
7272
  SciTegic06232017503D

 30 31  0  0  0  0            999 V2000
   -4.2610    0.3416    0.1640 O   0  0
   -2.8936    0.2353    0.1121 C   0  0
   -2.3091   -1.0160    0.2870 C   0  0
   -0.9251   -1.1553    0.2405 C   0  0
   -0.0936   -0.0443    0.0351 C   0  0
    1.3937   -0.2561   -0.0519 C   0  0
    2.0420    0.3449   -0.9122 O   0  0
    2.1009   -1.1591    0.9219 C   0  0
    3.3866   -1.6361    0.6245 C   0  0
    4.0780   -2.4503    1.5231 C   0  0
    5.3277   -2.9059    1.1843 O   0  0
    3.4971   -2.7900    2.7506 C   0  0
    4.1752   -3.5947    3.6355 O   0  0
    2.2258   -2.2994    3.0721 C   0  0
    1.6346   -2.6003    4.2738 O   0  0
    1.5416   -1.4861    2.1671 C   0  0
   -0.6904    1.2203   -0.1651 C   0  0
    0.0742    2.3443   -0.3878 O   0  0
   -2.0875    1.3566   -0.1178 C   0  0
   -2.6676    2.5910   -0.2990 O   0  0
   -4.6977   -0.4989    0.3187 H   0  0
   -2.9268   -1.8868    0.4536 H   0  0
   -0.5079   -2.1454    0.3603 H   0  0
    3.8574   -1.3861   -0.3164 H   0  0
    5.6181   -2.6025    0.3212 H   0  0
    5.0350   -3.8657    3.3052 H   0  0
    0.7689   -2.2002    4.3805 H   0  0
    0.5726   -1.1037    2.4543 H   0  0
    1.0141    2.1526   -0.4316 H   0  0
   -2.0225    3.2840   -0.4581 H   0  0
  1  2  1  0
  1 21  1  0
  2  3  2  0
  2 19  1  0
  3  4  1  0
  3 22  1  0
  4  5  2  0
  4 23  1  0
  5  6  1  0
  5 17  1  0
  6  7  2  0
  6  8  1  0
  8  9  2  0
  8 16  1  0
  9 10  1  0
  9 24  1  0
 10 11  1  0
 10 12  2  0
 11 25  1  0
 12 13  1  0
 12 14  1  0
 13 26  1  0
 14 15  1  0
 14 16  2  0
 15 27  1  0
 16 28  1  0
 17 18  1  0
 17 19  2  0
 18 29  1  0
 19 20  1  0
 20 30  1  0
M  END
> <Mol2_MolInfo_Name>
7272

> <Mol2_MolInfo_Type>
SMALL

> <Mol2_MolInfo_Charge>
USER_CHARGES

> <Mol2_Substructures>
     1 ****        1 GROUP             0       ****    0 ROOT    

> <Name>
7272

$$$$
7272
  SciTegic06232017503D

 29 30  0  0  0  0            999 V2000
   -2.7372    5.0375   -0.4870 O   0  0
   -2.0149    3.9033   -0.2115 C   0  0
   -2.3942    2.7082   -0.8140 C   0  0
   -1.6839    1.5400   -0.5603 C   0  0
   -0.5690    1.5440    0.2884 C   0  0
    0.1245    0.2274    0.5106 C   0  0
   -0.5512   -0.7634    0.8009 O   0  0
    1.6070    0.0929    0.2905 C   0  0
    2.3476    1.0799   -0.3782 C   0  0
    3.7162    0.9242   -0.6024 C   0  0
    4.4016    1.9210   -1.2513 O   0  0
    4.3696   -0.2369   -0.1726 C   0  0
    5.7178   -0.3913   -0.3943 O   0  0
    3.6396   -1.2389    0.4783 C   0  0
    4.2470   -2.3934    0.9055 O   0  0
    2.2714   -1.0735    0.6995 C   0  0
   -0.1987    2.7528    0.9284 C   0  0
    0.7678    2.7915    1.7648 O   0  5
   -0.9219    3.9345    0.6634 C   0  0
   -0.5819    5.1328    1.2557 O   0  0
   -3.4608    4.8753   -1.0963 H   0  0
   -3.2427    2.6799   -1.4821 H   0  0
   -2.0052    0.6289   -1.0464 H   0  0
    1.8682    1.9795   -0.7362 H   0  0
    3.8450    2.6700   -1.4765 H   0  0
    6.1039    0.3641   -0.8437 H   0  0
    3.6406   -2.9975    1.3392 H   0  0
    1.7289   -1.8628    1.2015 H   0  0
   -1.1630    5.8492    0.9899 H   0  0
  1  2  1  0
  1 21  1  0
  2  3  2  0
  2 19  1  0
  3  4  1  0
  3 22  1  0
  4  5  2  0
  4 23  1  0
  5  6  1  0
  5 17  1  0
  6  7  2  0
  6  8  1  0
  8  9  2  0
  8 16  1  0
  9 10  1  0
  9 24  1  0
 10 11  1  0
 10 12  2  0
 11 25  1  0
 12 13  1  0
 12 14  1  0
 13 26  1  0
 14 15  1  0
 14 16  2  0
 15 27  1  0
 16 28  1  0
 17 18  1  0
 17 19  2  0
 19 20  1  0
 20 29  1  0
M  CHG  1  18  -1
M  END
> <Mol2_MolInfo_Name>
7272

> <Mol2_MolInfo_Type>
SMALL

> <Mol2_MolInfo_Charge>
USER_CHARGES

> <Mol2_Substructures>
     1 ****        1 GROUP             0       ****    0 ROOT    

> <Name>
7272

$$$$
7998
  SciTegic06232017503D

 37 39  0  0  0  0            999 V2000
   -0.3275   -1.0255    1.4311 N   0  0
    0.0163   -0.2451    0.2253 C   0  0  1  0  0  0
    1.5555   -0.0854    0.2462 C   0  0
    2.2871   -1.0692    0.3886 O   0  0
    2.0092    1.1635    0.0445 N   0  0
    3.4130    1.5643   -0.0600 C   0  0  1  0  0  0
    3.9309    2.2940   -1.3576 C   0  0  1  0  0  0
    2.8076    2.6112   -2.7566 S   0  0
    3.7528    4.0286   -3.4275 C   0  0
    4.0794    5.0776   -2.3591 C   0  0
    4.1857    4.7844   -1.0341 C   0  0
    4.0360    3.5143   -0.5505 N   0  0  1  0  0  0
    3.7347    2.8955    0.6663 C   0  0
    3.6780    3.2958    1.8280 O   0  0
    4.5032    5.9084   -0.0073 C   0  0
    3.6794    6.8501    0.0197 O   0  0
    5.5307    5.7124    0.6797 O   0  5
    4.3344    6.7002   -3.0327 Cl  0  0
   -0.4238   -0.7715   -1.1244 C   0  0
   -0.5271    0.1131   -2.2063 C   0  0
   -0.9567   -0.3410   -3.4501 C   0  0
   -1.2992   -1.6805   -3.6142 C   0  0
   -1.2181   -2.5685   -2.5448 C   0  0
   -0.7863   -2.1144   -1.3014 C   0  0
   -0.0702   -0.5220    2.2680 H   0  0
   -1.3245   -1.1772    1.4854 H   0  0
   -0.4287    0.7440    0.3573 H   0  0
    1.3388    1.9049   -0.0984 H   0  0
    4.0539    0.7358    0.2487 H   0  0
    4.8949    1.9516   -1.7397 H   0  0
    4.6652    3.6535   -3.8916 H   0  0
    3.1383    4.4601   -4.2179 H   0  0
   -0.2666    1.1548   -2.0856 H   0  0
   -1.0254    0.3431   -4.2831 H   0  0
   -1.6334   -2.0335   -4.5788 H   0  0
   -1.4890   -3.6054   -2.6787 H   0  0
   -0.7260   -2.8148   -0.4813 H   0  0
  1  2  1  0
  1 25  1  0
  1 26  1  0
  2  3  1  0
  2 19  1  0
  2 27  1  0
  3  4  2  0
  3  5  1  0
  5  6  1  0
  5 28  1  0
  6  7  1  0
  6 13  1  0
  6 29  1  0
  7  8  1  0
  7 12  1  0
  7 30  1  0
  8  9  1  0
  9 10  1  0
  9 31  1  0
  9 32  1  0
 10 11  2  0
 10 18  1  0
 11 12  1  0
 11 15  1  0
 12 13  1  0
 13 14  2  0
 15 16  2  0
 15 17  1  0
 19 20  2  0
 19 24  1  0
 20 21  1  0
 20 33  1  0
 21 22  2  0
 21 34  1  0
 22 23  1  0
 22 35  1  0
 23 24  2  0
 23 36  1  0
 24 37  1  0
M  CHG  1  17  -1
M  END
> <Mol2_MolInfo_Name>
7998

> <Mol2_MolInfo_Type>
SMALL

> <Mol2_MolInfo_Charge>
USER_CHARGES

> <Mol2_Substructures>
     1 ****        1 GROUP             0       ****    0 ROOT    

> <Name>
7998

$$$$
7998
  SciTegic06232017503D

 38 40  0  0  0  0            999 V2000
    0.4312   -2.1789    0.3962 N   0  3
    0.2475   -0.7090    0.1516 C   0  0  1  0  0  0
    1.6469   -0.0390    0.2263 C   0  0
    2.6742   -0.7002    0.4011 O   0  0
    1.6457    1.2985    0.0957 N   0  0
    2.8463    2.1306    0.0841 C   0  0  1  0  0  0
    3.9358    1.9866   -1.0530 C   0  0  1  0  0  0
    3.6084    1.0398   -2.5798 S   0  0
    4.8713    1.8959   -3.5890 C   0  0
    4.7504    3.4204   -3.5067 C   0  0
    4.2004    4.0690   -2.4432 C   0  0
    3.7449    3.4172   -1.3302 N   0  0  1  0  0  0
    2.6239    3.5463   -0.5034 C   0  0
    1.7775    4.4281   -0.3637 O   0  0
    4.1024    5.6235   -2.4315 C   0  0
    3.5148    6.1282   -3.4147 O   0  0
    4.5910    6.1705   -1.4170 O   0  5
    5.4296    4.2458   -4.9241 Cl  0  0
   -0.5389   -0.4265   -1.1092 C   0  0
   -1.8957   -0.0989   -1.0109 C   0  0
   -2.6409    0.1602   -2.1582 C   0  0
   -2.0320    0.0858   -3.4086 C   0  0
   -0.6854   -0.2497   -3.5222 C   0  0
    0.0589   -0.5102   -2.3751 C   0  0
    1.0139   -2.5636   -0.3338 H   0  0
   -0.4732   -2.6281    0.3828 H   0  0
   -0.2992   -0.3888    1.0406 H   0  0
    0.7695    1.7885   -0.0162 H   0  0
    3.2609    2.1247    1.0941 H   0  0
    4.9411    1.7476   -0.7012 H   0  0
    5.8602    1.5684   -3.2674 H   0  0
    4.7304    1.5513   -4.6137 H   0  0
   -2.3773   -0.0391   -0.0455 H   0  0
   -3.6868    0.4181   -2.0790 H   0  0
   -2.6099    0.2881   -4.2986 H   0  0
   -0.2201   -0.3079   -4.4954 H   0  0
    1.1018   -0.7745   -2.4747 H   0  0
    0.8660   -2.3120    1.2982 H   0  0
  1  2  1  0
  1 25  1  0
  1 26  1  0
  1 38  1  0
  2  3  1  0
  2 19  1  0
  2 27  1  0
  3  4  2  0
  3  5  1  0
  5  6  1  0
  5 28  1  0
  6  7  1  0
  6 13  1  0
  6 29  1  0
  7  8  1  0
  7 12  1  0
  7 30  1  0
  8  9  1  0
  9 10  1  0
  9 31  1  0
  9 32  1  0
 10 11  2  0
 10 18  1  0
 11 12  1  0
 11 15  1  0
 12 13  1  0
 13 14  2  0
 15 16  2  0
 15 17  1  0
 19 20  2  0
 19 24  1  0
 20 21  1  0
 20 33  1  0
 21 22  2  0
 21 34  1  0
 22 23  1  0
 22 35  1  0
 23 24  2  0
 23 36  1  0
 24 37  1  0
M  CHG  2   1   1  17  -1
M  END
> <Mol2_MolInfo_Name>
7998

> <Mol2_MolInfo_Type>
SMALL

> <Mol2_MolInfo_Charge>
USER_CHARGES

> <Mol2_Substructures>
     1 ****        1 GROUP             0       ****    0 ROOT    

> <Name>
7998

$$$$
8103
  SciTegic06232017503D

 23 24  0  0  0  0            999 V2000
   -0.2286    0.0671   -0.3792 C   0  0
    1.1506   -0.3578    0.7253 S   0  0
    1.5585   -2.0549    0.4424 C   0  0
    0.8379   -2.7458   -0.4822 N   0  0
    1.1844   -4.0465   -0.6710 C   0  0
    2.2222   -4.6563    0.0377 C   0  0
    2.9009   -3.8620    0.9651 C   0  0
    2.5827   -2.5583    1.1805 N   0  0
   -0.6240    1.5251   -0.2229 C   0  0
    0.0424    2.5305   -0.9331 C   0  0
   -0.3431    3.8625   -0.7689 C   0  0
   -1.3917    4.1491    0.1071 C   0  0
   -2.0521    3.1909    0.8064 N   0  0
   -1.6636    1.9010    0.6350 C   0  0
    0.0585   -0.1266   -1.4135 H   0  0
   -1.0807   -0.5773   -0.1579 H   0  0
    0.6157   -4.5986   -1.4049 H   0  0
    2.4871   -5.6909   -0.1235 H   0  0
    3.7149   -4.2651    1.5496 H   0  0
    0.8527    2.2835   -1.6037 H   0  0
    0.1592    4.6528   -1.3068 H   0  0
   -1.7177    5.1674    0.2597 H   0  0
   -2.2051    1.1613    1.2068 H   0  0
  1  2  1  0
  1  9  1  0
  1 15  1  0
  1 16  1  0
  2  3  1  0
  3  4  2  0
  3  8  1  0
  4  5  1  0
  5  6  2  0
  5 17  1  0
  6  7  1  0
  6 18  1  0
  7  8  2  0
  7 19  1  0
  9 10  2  0
  9 14  1  0
 10 11  1  0
 10 20  1  0
 11 12  2  0
 11 21  1  0
 12 13  1  0
 12 22  1  0
 13 14  2  0
 14 23  1  0
M  END
> <Mol2_MolInfo_Name>
8103

> <Mol2_MolInfo_Type>
SMALL

> <Mol2_MolInfo_Charge>
USER_CHARGES

> <Mol2_Substructures>
     1 ****        1 GROUP             0       ****    0 ROOT    

> <Name>
8103

$$$$
8223
  SciTegic06232017503D

 58 61  0  0  0  0            999 V2000
   -1.1728   -0.3908   -1.0592 C   0  0
   -0.3049    0.2030    0.0726 N   0  3  1  0  0  0
    1.2096   -0.0320   -0.1380 C   0  0
    1.5567   -1.5296   -0.1984 C   0  0
    3.0911   -1.7555   -0.1620 C   0  0
    3.4909   -3.1883   -0.1396 N   0  0
    3.4869   -3.8177    1.1553 C   0  0
    2.8893   -3.1692    2.2682 C   0  0
    2.7608   -3.7522    3.5236 C   0  0
    3.2310   -5.0339    3.7359 C   0  0
    3.8481   -5.7050    2.6935 C   0  0
    4.0024   -5.1200    1.4271 C   0  0
    4.7791   -5.9327    0.4116 C   0  0
    5.7831   -5.1234   -0.3923 C   0  0
    5.1241   -4.4601   -1.5751 C   0  0
    5.6074   -4.7675   -2.8552 C   0  0
    4.9889   -4.2805   -3.9972 C   0  0
    3.8631   -3.4850   -3.8695 C   0  0
    3.3843   -3.1665   -2.6030 C   0  0
    4.0005   -3.6110   -1.4089 C   0  0
   -0.6006    1.7108    0.2641 C   0  0
   -1.8563    2.0246    1.1003 C   0  0
   -2.4978    1.0988    1.6023 O   0  0
   -2.2305    3.4670    1.2718 C   0  0
   -1.4736    4.4987    0.6939 C   0  0
   -1.8453    5.8291    0.8688 C   0  0
   -2.9735    6.1406    1.6229 C   0  0
   -3.4318    7.7907    1.8392 Cl  0  0
   -3.7336    5.1291    2.2040 C   0  0
   -3.3638    3.7981    2.0294 C   0  0
   -0.8208    0.0265   -2.0038 H   0  0
   -2.2097   -0.1155   -0.8640 H   0  0
   -1.0637   -1.4745   -1.0285 H   0  0
    1.4882    0.5052   -1.0464 H   0  0
    1.6873    0.4354    0.7247 H   0  0
    1.0450   -2.0601    0.6034 H   0  0
    1.1484   -1.9305   -1.1228 H   0  0
    3.5411   -1.2215   -1.0012 H   0  0
    3.5372   -1.2179    0.6758 H   0  0
    2.4828   -2.1742    2.2085 H   0  0
    2.2880   -3.2092    4.3288 H   0  0
    3.1319   -5.5007    4.7049 H   0  0
    4.2316   -6.6969    2.8855 H   0  0
    5.3292   -6.7238    0.9250 H   0  0
    4.0823   -6.4668   -0.2370 H   0  0
    6.3042   -4.3841    0.2182 H   0  0
    6.5693   -5.7961   -0.7402 H   0  0
    6.4656   -5.4136   -2.9720 H   0  0
    5.3706   -4.5332   -4.9755 H   0  0
    3.3615   -3.1104   -4.7497 H   0  0
    2.5093   -2.5411   -2.5822 H   0  0
    0.2638    2.1009    0.8021 H   0  0
   -0.6133    2.1507   -0.7337 H   0  0
   -0.5922    4.2952    0.1040 H   0  0
   -1.2569    6.6158    0.4190 H   0  0
   -4.6086    5.3722    2.7890 H   0  0
   -3.9700    3.0310    2.4907 H   0  0
   -0.5629   -0.2594    0.9339 H   0  0
  1  2  1  0
  1 31  1  0
  1 32  1  0
  1 33  1  0
  2  3  1  0
  2 21  1  0
  2 58  1  0
  3  4  1  0
  3 34  1  0
  3 35  1  0
  4  5  1  0
  4 36  1  0
  4 37  1  0
  5  6  1  0
  5 38  1  0
  5 39  1  0
  6  7  1  0
  6 20  1  0
  7  8  2  0
  7 12  1  0
  8  9  1  0
  8 40  1  0
  9 10  2  0
  9 41  1  0
 10 11  1  0
 10 42  1  0
 11 12  2  0
 11 43  1  0
 12 13  1  0
 13 14  1  0
 13 44  1  0
 13 45  1  0
 14 15  1  0
 14 46  1  0
 14 47  1  0
 15 16  2  0
 15 20  1  0
 16 17  1  0
 16 48  1  0
 17 18  2  0
 17 49  1  0
 18 19  1  0
 18 50  1  0
 19 20  2  0
 19 51  1  0
 21 22  1  0
 21 52  1  0
 21 53  1  0
 22 23  2  0
 22 24  1  0
 24 25  2  0
 24 30  1  0
 25 26  1  0
 25 54  1  0
 26 27  2  0
 26 55  1  0
 27 28  1  0
 27 29  1  0
 29 30  2  0
 29 56  1  0
 30 57  1  0
M  CHG  1   2   1
M  END
> <Mol2_MolInfo_Name>
8223

> <Mol2_MolInfo_Type>
SMALL

> <Mol2_MolInfo_Charge>
USER_CHARGES

> <Mol2_Substructures>
     1 ****        1 GROUP             0       ****    0 ROOT    

> <Name>
8223

$$$$
8223
  SciTegic06232017503D

 57 60  0  0  0  0            999 V2000
   -0.5507    1.5759    0.3316 C   0  0
   -0.2177    0.2057   -0.0693 N   0  0
    1.2269   -0.0311    0.0086 C   0  0
    1.7408   -0.0347    1.4636 C   0  0
    3.0895   -0.7655    1.6522 C   0  0
    3.2791   -1.2868    3.0255 N   0  0
    4.0850   -0.4270    3.8047 C   0  0
    3.6186    0.8715    4.0781 C   0  0
    4.3903    1.8004    4.7702 C   0  0
    5.6602    1.4500    5.2083 C   0  0
    6.1420    0.1690    4.9625 C   0  0
    5.3708   -0.7747    4.2706 C   0  0
    5.8889   -2.1842    4.0909 C   0  0
    4.9764   -3.2158    4.7497 C   0  0
    3.6994   -3.5803    4.0029 C   0  0
    3.2439   -4.8991    4.1492 C   0  0
    2.1058   -5.3558    3.4995 C   0  0
    1.3915   -4.4886    2.6904 C   0  0
    1.8184   -3.1736    2.5468 C   0  0
    2.9727   -2.6679    3.1867 C   0  0
   -0.7008   -0.0750   -1.4279 C   0  0
   -2.2194   -0.3327   -1.4987 C   0  0
   -2.9015    0.4274   -2.1876 O   0  0
   -2.8018   -1.4624   -0.6976 C   0  0
   -1.9904   -2.4544   -0.1244 C   0  0
   -2.5577   -3.4947    0.6061 C   0  0
   -3.9398   -3.5576    0.7627 C   0  0
   -4.6420   -4.8475    1.6694 Cl  0  0
   -4.7590   -2.5876    0.1905 C   0  0
   -4.1926   -1.5463   -0.5398 C   0  0
   -1.6264    1.7478    0.2825 H   0  0
   -0.0622    2.3099   -0.3112 H   0  0
   -0.2482    1.7717    1.3605 H   0  0
    1.4755   -0.9890   -0.4516 H   0  0
    1.7589    0.7212   -0.5774 H   0  0
    1.9645    1.0125    1.6676 H   0  0
    0.9841   -0.2673    2.2154 H   0  0
    3.1899   -1.5707    0.9219 H   0  0
    3.9010   -0.0830    1.3880 H   0  0
    2.6334    1.1748    3.7601 H   0  0
    4.0029    2.7895    4.9651 H   0  0
    6.2654    2.1642    5.7469 H   0  0
    7.1237   -0.0959    5.3279 H   0  0
    6.0455   -2.3967    3.0323 H   0  0
    6.8800   -2.2617    4.5413 H   0  0
    5.5632   -4.1248    4.8955 H   0  0
    4.7098   -2.8938    5.7578 H   0  0
    3.7882   -5.5918    4.7749 H   0  0
    1.7797   -6.3779    3.6242 H   0  0
    0.5012   -4.8287    2.1820 H   0  0
    1.2034   -2.5425    1.9254 H   0  0
   -0.4221    0.7371   -2.1018 H   0  0
   -0.2095   -0.9640   -1.8254 H   0  0
   -0.9160   -2.4395   -0.2335 H   0  0
   -1.9237   -4.2500    1.0472 H   0  0
   -5.8313   -2.6396    0.3107 H   0  0
   -4.8480   -0.8045   -0.9744 H   0  0
  1  2  1  0
  1 31  1  0
  1 32  1  0
  1 33  1  0
  2  3  1  0
  2 21  1  0
  3  4  1  0
  3 34  1  0
  3 35  1  0
  4  5  1  0
  4 36  1  0
  4 37  1  0
  5  6  1  0
  5 38  1  0
  5 39  1  0
  6  7  1  0
  6 20  1  0
  7  8  2  0
  7 12  1  0
  8  9  1  0
  8 40  1  0
  9 10  2  0
  9 41  1  0
 10 11  1  0
 10 42  1  0
 11 12  2  0
 11 43  1  0
 12 13  1  0
 13 14  1  0
 13 44  1  0
 13 45  1  0
 14 15  1  0
 14 46  1  0
 14 47  1  0
 15 16  2  0
 15 20  1  0
 16 17  1  0
 16 48  1  0
 17 18  2  0
 17 49  1  0
 18 19  1  0
 18 50  1  0
 19 20  2  0
 19 51  1  0
 21 22  1  0
 21 52  1  0
 21 53  1  0
 22 23  2  0
 22 24  1  0
 24 25  2  0
 24 30  1  0
 25 26  1  0
 25 54  1  0
 26 27  2  0
 26 55  1  0
 27 28  1  0
 27 29  1  0
 29 30  2  0
 29 56  1  0
 30 57  1  0
M  END
> <Mol2_MolInfo_Name>
8223

> <Mol2_MolInfo_Type>
SMALL

> <Mol2_MolInfo_Charge>
USER_CHARGES

> <Mol2_Substructures>
     1 ****        1 GROUP             0       ****    0 ROOT    

> <Name>
8223

$$$$
8225
  SciTegic06232017503D

 41 44  0  0  0  0            999 V2000
   -0.0736   -0.0407    0.0090 C   0  0
    1.4663    0.0120    0.0009 N   0  3  2  0  0  0
    1.9953    0.7049    1.2687 C   0  0
    3.5342    0.7598    1.2005 C   0  0
    3.9973    1.4956    0.0074 N   0  0  2  0  0  0
    3.5340    0.7969   -1.2208 C   0  0  1  0  0  0
    1.9838    0.7313   -1.2600 C   0  0
    4.0304    1.2574   -2.6093 C   0  0
    4.0941    0.3142   -3.6459 C   0  0
    4.4716    0.6730   -4.9371 C   0  0
    4.7910    1.9954   -5.2201 C   0  0
    4.7409    2.9486   -4.2077 C   0  0
    4.3728    2.5988   -2.9024 C   0  0
    4.3802    3.6472   -1.8026 C   0  0
    5.4405    3.2777   -0.7734 C   0  0
    6.6353    4.0013   -0.6824 C   0  0
    7.6150    3.6484    0.2405 C   0  0
    7.4095    2.5617    1.0824 C   0  0
    6.2203    1.8406    1.0070 C   0  0
    5.2063    2.1914    0.0966 C   0  0
   -0.4488    0.9841    0.0160 H   0  0
   -0.3722   -0.5844    0.9062 H   0  0
   -0.3815   -0.5758   -0.8903 H   0  0
    1.5348    1.6931    1.3319 H   0  0
    1.6726    0.0829    2.1048 H   0  0
    3.8919    1.2304    2.1176 H   0  0
    3.9412   -0.2521    1.1537 H   0  0
    3.9132   -0.2246   -1.1418 H   0  0
    1.6368    0.1235   -2.0976 H   0  0
    1.5184    1.7186   -1.2989 H   0  0
    3.8346   -0.7163   -3.4508 H   0  0
    4.5104   -0.0724   -5.7179 H   0  0
    5.0816    2.2812   -6.2203 H   0  0
    5.0050    3.9702   -4.4396 H   0  0
    4.5844    4.6370   -2.2151 H   0  0
    3.3941    3.7178   -1.3408 H   0  0
    6.8115    4.8391   -1.3416 H   0  0
    8.5350    4.2115    0.2966 H   0  0
    8.1710    2.2768    1.7935 H   0  0
    6.1004    0.9975    1.6710 H   0  0
    1.8292   -0.9311   -0.0106 H   0  0
  1  2  1  0
  1 21  1  0
  1 22  1  0
  1 23  1  0
  2  3  1  0
  2  7  1  0
  2 41  1  0
  3  4  1  0
  3 24  1  0
  3 25  1  0
  4  5  1  0
  4 26  1  0
  4 27  1  0
  5  6  1  0
  5 20  1  0
  6  7  1  0
  6  8  1  0
  6 28  1  0
  7 29  1  0
  7 30  1  0
  8  9  2  0
  8 13  1  0
  9 10  1  0
  9 31  1  0
 10 11  2  0
 10 32  1  0
 11 12  1  0
 11 33  1  0
 12 13  2  0
 12 34  1  0
 13 14  1  0
 14 15  1  0
 14 35  1  0
 14 36  1  0
 15 16  2  0
 15 20  1  0
 16 17  1  0
 16 37  1  0
 17 18  2  0
 17 38  1  0
 18 19  1  0
 18 39  1  0
 19 20  2  0
 19 40  1  0
M  CHG  1   2   1
M  END
> <Mol2_MolInfo_Name>
8225

> <Mol2_MolInfo_Type>
SMALL

> <Mol2_MolInfo_Charge>
USER_CHARGES

> <Mol2_Substructures>
     1 ****        1 GROUP             0       ****    0 ROOT    

> <Name>
8225

$$$$
8225
  SciTegic06232017503D

 40 43  0  0  0  0            999 V2000
   -0.0420   -0.0709    0.0740 C   0  0
    1.4144    0.0092    0.0725 N   0  0
    1.9944   -1.3212   -0.1102 C   0  0
    3.5376   -1.2323   -0.1074 C   0  0
    4.0414   -0.6674    1.1593 N   0  0  2  0  0  0
    3.4504    0.6851    1.3279 C   0  0  1  0  0  0
    1.8970    0.5888    1.3285 C   0  0
    3.8950    1.5880    2.5005 C   0  0
    3.7473    2.9764    2.3622 C   0  0
    4.0787    3.8530    3.3913 C   0  0
    4.5668    3.3530    4.5921 C   0  0
    4.7269    1.9802    4.7532 C   0  0
    4.4048    1.0873    3.7231 C   0  0
    4.6340   -0.4033    3.9150 C   0  0
    5.6826   -0.8891    2.9223 C   0  0
    6.9715   -1.2331    3.3463 C   0  0
    7.9322   -1.6609    2.4352 C   0  0
    7.6123   -1.7474    1.0853 C   0  0
    6.3302   -1.4167    0.6535 C   0  0
    5.3373   -1.0004    1.5590 C   0  0
   -0.4807    0.9213    0.1867 H   0  0
   -0.4112   -0.7008    0.8854 H   0  0
   -0.4041   -0.4836   -0.8686 H   0  0
    1.6723   -1.9917    0.6898 H   0  0
    1.6682   -1.7437   -1.0616 H   0  0
    3.9192   -2.2451   -0.2450 H   0  0
    3.8802   -0.6275   -0.9494 H   0  0
    3.7540    1.2552    0.4464 H   0  0
    1.4735    1.5885    1.4383 H   0  0
    1.5726   -0.0070    2.1846 H   0  0
    3.3572    3.3844    1.4409 H   0  0
    3.9523    4.9173    3.2583 H   0  0
    4.8251    4.0277    5.3949 H   0  0
    5.1184    1.6077    5.6888 H   0  0
    4.9595   -0.6136    4.9354 H   0  0
    3.6961   -0.9463    3.7880 H   0  0
    7.2349   -1.1587    4.3914 H   0  0
    8.9248   -1.9183    2.7744 H   0  0
    8.3566   -2.0702    0.3724 H   0  0
    6.1193   -1.4881   -0.4033 H   0  0
  1  2  1  0
  1 21  1  0
  1 22  1  0
  1 23  1  0
  2  3  1  0
  2  7  1  0
  3  4  1  0
  3 24  1  0
  3 25  1  0
  4  5  1  0
  4 26  1  0
  4 27  1  0
  5  6  1  0
  5 20  1  0
  6  7  1  0
  6  8  1  0
  6 28  1  0
  7 29  1  0
  7 30  1  0
  8  9  2  0
  8 13  1  0
  9 10  1  0
  9 31  1  0
 10 11  2  0
 10 32  1  0
 11 12  1  0
 11 33  1  0
 12 13  2  0
 12 34  1  0
 13 14  1  0
 14 15  1  0
 14 35  1  0
 14 36  1  0
 15 16  2  0
 15 20  1  0
 16 17  1  0
 16 37  1  0
 17 18  2  0
 17 38  1  0
 18 19  1  0
 18 39  1  0
 19 20  2  0
 19 40  1  0
M  END
> <Mol2_MolInfo_Name>
8225

> <Mol2_MolInfo_Type>
SMALL

> <Mol2_MolInfo_Charge>
USER_CHARGES

> <Mol2_Substructures>
     1 ****        1 GROUP             0       ****    0 ROOT    

> <Name>
8225

$$$$
8240
  SciTegic06232017503D

 36 35  0  0  0  0            999 V2000
   -3.0478    1.1178    1.4204 C   0  0
   -2.6137    1.6247    0.0339 C   0  0
   -1.4401    2.5301    0.0653 N   0  0
   -1.7850    3.9718    0.0484 C   0  0
   -1.8515    4.6114    1.4460 C   0  0
   -0.1213    2.0862    0.0542 C   0  0
    1.2446    3.0627    0.0491 S   0  0
    0.0249    0.2983    0.0545 S   0  0
    2.0090   -0.2899    0.0471 S   0  0
    2.1529   -2.0760   -0.0243 C   0  0
    0.7892   -3.0532   -0.0813 S   0  0
    3.4709   -2.5194   -0.0249 N   0  0
    3.8249   -3.9564   -0.0433 C   0  0
    3.9823   -4.5273   -1.4623 C   0  0
    4.6482   -1.6226   -0.0130 C   0  0
    5.0953   -1.2240    1.4033 C   0  0
   -3.8895    0.4312    1.3267 H   0  0
   -3.3739    1.9358    2.0620 H   0  0
   -2.2472    0.5813    1.9299 H   0  0
   -2.4526    0.7851   -0.6424 H   0  0
   -3.4618    2.1401   -0.4177 H   0  0
   -1.0957    4.5343   -0.5822 H   0  0
   -2.7477    4.1159   -0.4429 H   0  0
   -2.0775    5.6748    1.3663 H   0  0
   -0.9046    4.5203    1.9788 H   0  0
   -2.6345    4.1631    2.0568 H   0  0
    4.7629   -4.0968    0.4963 H   0  0
    3.1103   -4.5548    0.5224 H   0  0
    4.2351   -5.5869   -1.4214 H   0  0
    4.7811   -4.0246   -2.0084 H   0  0
    3.0610   -4.4347   -2.0379 H   0  0
    5.4807   -2.1263   -0.5067 H   0  0
    4.4935   -0.7368   -0.6289 H   0  0
    5.9577   -0.5589    1.3584 H   0  0
    5.3896   -2.0971    1.9865 H   0  0
    4.3078   -0.6996    1.9451 H   0  0
  1  2  1  0
  1 17  1  0
  1 18  1  0
  1 19  1  0
  2  3  1  0
  2 20  1  0
  2 21  1  0
  3  4  1  0
  3  6  1  0
  4  5  1  0
  4 22  1  0
  4 23  1  0
  5 24  1  0
  5 25  1  0
  5 26  1  0
  6  7  2  0
  6  8  1  0
  8  9  1  0
  9 10  1  0
 10 11  2  0
 10 12  1  0
 12 13  1  0
 12 15  1  0
 13 14  1  0
 13 27  1  0
 13 28  1  0
 14 29  1  0
 14 30  1  0
 14 31  1  0
 15 16  1  0
 15 32  1  0
 15 33  1  0
 16 34  1  0
 16 35  1  0
 16 36  1  0
M  END
> <Mol2_MolInfo_Name>
8240

> <Mol2_MolInfo_Type>
SMALL

> <Mol2_MolInfo_Charge>
USER_CHARGES

> <Mol2_Substructures>
     1 ****        1 GROUP             0       ****    0 ROOT    

> <Name>
8240

$$$$
8319
  SciTegic06232017503D

 30 30  0  0  0  0            999 V2000
   -0.7309   -0.5589    1.2294 C   0  0
   -0.0809    0.0534   -0.0478 C   0  0  1  0  0  0
    1.4781   -0.0706   -0.0123 C   0  0
    2.0293   -1.4961   -0.0030 C   0  0
    2.2218   -2.1704    1.2068 C   0  0
    2.7250   -3.4710    1.2161 C   0  0
    3.0475   -4.1081    0.0165 C   0  0
    3.5404   -5.3885    0.0516 O   0  0
    2.8663   -3.4353   -1.1993 C   0  0
    3.1784   -4.0342   -2.3940 O   0  0
    2.3606   -2.1336   -1.2035 C   0  0
   -0.5745   -0.7224   -1.3063 N   0  3
   -2.0403   -0.8875   -1.3854 N   0  0
   -0.4599    1.5729   -0.1823 C   0  0
   -0.1682    2.3181    0.7817 O   0  0
   -1.0176    2.0001   -1.2214 O   0  5
   -0.2975   -0.1405    2.1392 H   0  0
   -0.5880   -1.6389    1.2752 H   0  0
   -1.8055   -0.3761    1.2772 H   0  0
    1.9191    0.4511   -0.8649 H   0  0
    1.8816    0.4485    0.8599 H   0  0
    1.9777   -1.6886    2.1428 H   0  0
    2.8638   -3.9810    2.1583 H   0  0
    3.6227   -5.7371    0.9421 H   0  0
    3.0265   -3.4660   -3.1523 H   0  0
    2.2235   -1.6162   -2.1424 H   0  0
   -0.2282   -0.2741   -2.1426 H   0  0
   -2.3412   -0.0985   -1.9403 H   0  0
   -2.3546   -0.7038   -0.4431 H   0  0
   -0.1526   -1.6393   -1.2667 H   0  0
  1  2  1  0
  1 17  1  0
  1 18  1  0
  1 19  1  0
  2  3  1  0
  2 12  1  0
  2 14  1  0
  3  4  1  0
  3 20  1  0
  3 21  1  0
  4  5  2  0
  4 11  1  0
  5  6  1  0
  5 22  1  0
  6  7  2  0
  6 23  1  0
  7  8  1  0
  7  9  1  0
  8 24  1  0
  9 10  1  0
  9 11  2  0
 10 25  1  0
 11 26  1  0
 12 13  1  0
 12 27  1  0
 12 30  1  0
 13 28  1  0
 13 29  1  0
 14 15  2  0
 14 16  1  0
M  CHG  2  12   1  16  -1
M  END
> <Mol2_MolInfo_Name>
8319

> <Mol2_MolInfo_Type>
SMALL

> <Mol2_MolInfo_Charge>
USER_CHARGES

> <Mol2_Substructures>
     1 ****        1 GROUP             0       ****    0 ROOT    

> <Name>
8319

$$$$
8431
  SciTegic06232017503D

 24 23  0  0  0  0            999 V2000
   -3.0032    2.4610    0.1361 C   0  0
   -2.0807    1.3331    0.1581 N   0  0
   -0.7133    1.4954    0.0066 C   0  0
   -0.1318    2.5727   -0.1583 O   0  0
   -0.1163    0.2507    0.0807 O   0  0
    1.2977    0.2656   -0.1253 N   0  0
    2.0501   -0.1148    0.9551 C   0  0
    3.2658   -0.3285    0.9190 O   0  0
    1.3592   -0.2801    2.3158 C   0  0
    1.7699    0.3008   -1.4167 C   0  0
    2.9003    0.7027   -1.7120 O   0  0
    0.9186   -0.1719   -2.3511 N   0  0
    1.1893   -0.2178   -3.7831 C   0  0
   -4.0251    2.1053    0.2681 H   0  0
   -2.9512    2.9938   -0.8147 H   0  0
   -2.7844    3.1644    0.9412 H   0  0
   -2.4508    0.4031    0.2905 H   0  0
    0.6517   -1.1093    2.2882 H   0  0
    0.8231    0.6289    2.5904 H   0  0
    2.0895   -0.4871    3.0988 H   0  0
    0.0236   -0.5314   -2.0524 H   0  0
    0.2543   -0.1353   -4.3369 H   0  0
    1.6596   -1.1655   -4.0466 H   0  0
    1.8418    0.5949   -4.1053 H   0  0
  1  2  1  0
  1 14  1  0
  1 15  1  0
  1 16  1  0
  2  3  1  0
  2 17  1  0
  3  4  2  0
  3  5  1  0
  5  6  1  0
  6  7  1  0
  6 10  1  0
  7  8  2  0
  7  9  1  0
  9 18  1  0
  9 19  1  0
  9 20  1  0
 10 11  2  0
 10 12  1  0
 12 13  1  0
 12 21  1  0
 13 22  1  0
 13 23  1  0
 13 24  1  0
M  END
> <Mol2_MolInfo_Name>
8431

> <Mol2_MolInfo_Type>
SMALL

> <Mol2_MolInfo_Charge>
USER_CHARGES

> <Mol2_Substructures>
     1 ****        1 GROUP             0       ****    0 ROOT    

> <Name>
8431

$$$$
8437
  SciTegic06232017503D

 19 20  0  0  0  0            999 V2000
   -0.0212    0.0415    0.2754 C   0  0
    1.4793    0.0007   -0.0353 C   0  0
    2.1845   -1.1518   -0.1449 C   0  0
    3.9110   -1.0908   -0.4963 S   0  0
    3.9373    0.9156   -0.5348 S   0  0
    2.2311    1.2128   -0.2053 C   0  0
    1.7071    2.7917   -0.1333 S   0  0
    1.6038   -2.5015   -0.0341 C   0  0
    1.9196   -3.3780    1.0110 C   0  0
    1.3908   -4.6290    1.0720 N   0  0
    0.5478   -4.9974    0.0712 C   0  0
    0.2392   -4.1284   -0.9791 C   0  0
    0.7678   -2.8777   -1.0420 N   0  0
   -0.2161    0.6581    1.1538 H   0  0
   -0.4444   -0.9406    0.4830 H   0  0
   -0.5703    0.4638   -0.5670 H   0  0
    2.5944   -3.0915    1.8045 H   0  0
    0.1281   -5.9913    0.1205 H   0  0
   -0.4277   -4.4228   -1.7760 H   0  0
  1  2  1  0
  1 14  1  0
  1 15  1  0
  1 16  1  0
  2  3  2  0
  2  6  1  0
  3  4  1  0
  3  8  1  0
  4  5  1  0
  5  6  1  0
  6  7  2  0
  8  9  2  0
  8 13  1  0
  9 10  1  0
  9 17  1  0
 10 11  2  0
 11 12  1  0
 11 18  1  0
 12 13  2  0
 12 19  1  0
M  END
> <Mol2_MolInfo_Name>
8437

> <Mol2_MolInfo_Type>
SMALL

> <Mol2_MolInfo_Charge>
USER_CHARGES

> <Mol2_Substructures>
     1 ****        1 GROUP             0       ****    0 ROOT    

> <Name>
8437

$$$$
8471
  SciTegic06232017503D

 18 17  0  0  0  0            999 V2000
   -0.5339    1.4090    0.0940 C   0  0
    0.0712   -0.0013   -0.0206 C   0  0
    1.5524   -0.0007   -0.1697 N   0  0
    2.1737    0.0019    1.1833 C   0  0
    2.3796   -1.4072    1.7663 C   0  0
    2.2436   -0.0027   -1.3768 C   0  0
    3.9332   -0.1562   -1.4705 S   0  0
    1.4693    0.1481   -2.8818 S   0  0
   -1.6179    1.3510    0.1921 H   0  0
   -0.3197    2.0109   -0.7894 H   0  0
   -0.1578    1.9388    0.9692 H   0  0
   -0.2152   -0.5825    0.8572 H   0  0
   -0.4116   -0.5314   -0.8416 H   0  0
    3.1268    0.5310    1.1830 H   0  0
    1.5625    0.5852    1.8735 H   0  0
    2.8440   -1.3478    2.7506 H   0  0
    3.0323   -2.0114    1.1358 H   0  0
    1.4335   -1.9353    1.8861 H   0  0
  1  2  1  0
  1  9  1  0
  1 10  1  0
  1 11  1  0
  2  3  1  0
  2 12  1  0
  2 13  1  0
  3  4  1  0
  3  6  1  0
  4  5  1  0
  4 14  1  0
  4 15  1  0
  5 16  1  0
  5 17  1  0
  5 18  1  0
  6  7  2  0
  6  8  1  0
M  END
> <Mol2_MolInfo_Name>
8471

> <Mol2_MolInfo_Type>
SMALL

> <Mol2_MolInfo_Charge>
USER_CHARGES

> <Mol2_Substructures>
     1 ****        1 GROUP             0       ****    0 ROOT    

> <Name>
8471

$$$$
8605
  SciTegic06232017503D

 41 42  0  0  0  0            999 V2000
    0.4985   -0.5908    2.2449 O   0  5
   -0.3374   -0.6866    1.3167 C   0  0
   -1.4100   -1.3264    1.3902 O   0  0
   -0.0573    0.0376   -0.0202 C   0  0  1  0  0  0
   -0.7184    1.4457   -0.0481 C   0  0
   -2.2426    1.4347    0.0054 C   0  0
   -2.9157    1.8742    1.1494 C   0  0
   -4.3097    1.8605    1.1926 C   0  0
   -5.0422    1.4086    0.0934 C   0  0
   -6.4127    1.4054    0.1563 O   0  0
   -4.3734    0.9663   -1.0554 C   0  0
   -5.0693    0.5169   -2.1498 O   0  0
   -2.9775    0.9813   -1.0946 C   0  0
    1.3635    0.1439   -0.1747 O   0  0
    1.9465    0.3214   -1.3857 C   0  0
    1.3328    0.4025   -2.4538 O   0  0
    3.3990    0.4030   -1.2752 C   0  0
    4.2023    0.6241   -2.3386 C   0  0
    5.6787    0.7148   -2.3212 C   0  0
    6.4421    0.4260   -1.1805 C   0  0
    7.8329    0.5306   -1.2101 C   0  0
    8.4835    0.9273   -2.3785 C   0  0
    9.8526    1.0243   -2.3854 O   0  0
    7.7335    1.2194   -3.5236 C   0  0
    8.3461    1.6132   -4.6864 O   0  0
    6.3417    1.1114   -3.4889 C   0  0
   -0.4642   -0.5797   -0.8237 H   0  0
   -0.3229    2.0651    0.7595 H   0  0
   -0.4350    1.9682   -0.9627 H   0  0
   -2.3608    2.2221    2.0086 H   0  0
   -4.8192    2.2007    2.0825 H   0  0
   -6.8134    1.0593   -0.6448 H   0  0
   -4.4967    0.2328   -2.8658 H   0  0
   -2.4601    0.6384   -1.9793 H   0  0
    3.8077    0.2786   -0.2831 H   0  0
    3.7484    0.7445   -3.3138 H   0  0
    5.9724    0.1133   -0.2604 H   0  0
    8.4026    0.3019   -0.3209 H   0  0
   10.2509    0.7914   -1.5436 H   0  0
    9.3016    1.6570   -4.6016 H   0  0
    5.7747    1.3415   -4.3801 H   0  0
  1  2  1  0
  2  3  2  0
  2  4  1  0
  4  5  1  0
  4 14  1  0
  4 27  1  0
  5  6  1  0
  5 28  1  0
  5 29  1  0
  6  7  2  0
  6 13  1  0
  7  8  1  0
  7 30  1  0
  8  9  2  0
  8 31  1  0
  9 10  1  0
  9 11  1  0
 10 32  1  0
 11 12  1  0
 11 13  2  0
 12 33  1  0
 13 34  1  0
 14 15  1  0
 15 16  2  0
 15 17  1  0
 17 18  2  0
 17 35  1  0
 18 19  1  0
 18 36  1  0
 19 20  2  0
 19 26  1  0
 20 21  1  0
 20 37  1  0
 21 22  2  0
 21 38  1  0
 22 23  1  0
 22 24  1  0
 23 39  1  0
 24 25  1  0
 24 26  2  0
 25 40  1  0
 26 41  1  0
M  CHG  1   1  -1
M  END
> <Mol2_MolInfo_Name>
8605

> <Mol2_MolInfo_Type>
SMALL

> <Mol2_MolInfo_Charge>
USER_CHARGES

> <Mol2_Substructures>
     1 ****        1 GROUP             0       ****    0 ROOT    

> <Name>
8605

$$$$
8718
  SciTegic06232017503D

 35 37  0  0  0  0            999 V2000
   -0.5662   -0.7635   -1.2325 C   0  0
    0.0071    0.0219   -0.0380 C   0  0  2  0  0  0
   -0.5662    1.4491    0.0449 C   0  0
    1.5367    0.0183   -0.0317 C   0  0
    2.2552    0.6192   -1.0725 C   0  0
    3.6487    0.6147   -1.0647 C   0  0
    4.3340    0.0078   -0.0135 C   0  0
    5.7148    0.0423   -0.0732 O   0  0
    6.4618   -0.5388    0.9332 C   0  0
    7.7980   -0.4356    0.7544 N   0  0
    8.6226   -0.9741    1.6871 C   0  0
    9.9768   -0.8033    1.3914 N   0  0
    8.1437   -1.6425    2.8449 C   0  0
    6.7443   -1.7256    2.9889 C   0  0
    5.8802   -1.1750    2.0352 C   0  0
    4.3975   -1.2430    2.1530 C   0  0
    3.8388   -1.7925    3.1048 O   0  0
    3.6355   -0.6021    1.0429 C   0  0
    2.2340   -0.5890    1.0201 C   0  0
    9.0308   -2.2540    3.9040 C   0  0
    8.4764   -2.8156    4.8767 O   0  0
   10.2736   -2.1809    3.7775 O   0  5
   -0.1742   -1.7810   -1.2597 H   0  0
   -0.3227   -0.2884   -2.1835 H   0  0
   -1.6527   -0.8352   -1.1704 H   0  0
   -0.3303   -0.4972    0.8611 H   0  0
   -0.1742    1.9815    0.9125 H   0  0
   -1.6527    1.4312    0.1381 H   0  0
   -0.3227    2.0351   -0.8420 H   0  0
    1.7338    1.0922   -1.8918 H   0  0
    4.1938    1.0810   -1.8723 H   0  0
   10.6664   -1.1730    2.0317 H   0  0
   10.2445   -0.3168    0.5487 H   0  0
    6.3159   -2.2223    3.8492 H   0  0
    1.6788   -1.0528    1.8236 H   0  0
  1  2  1  0
  1 23  1  0
  1 24  1  0
  1 25  1  0
  2  3  1  0
  2  4  1  0
  2 26  1  0
  3 27  1  0
  3 28  1  0
  3 29  1  0
  4  5  2  0
  4 19  1  0
  5  6  1  0
  5 30  1  0
  6  7  2  0
  6 31  1  0
  7  8  1  0
  7 18  1  0
  8  9  1  0
  9 10  2  0
  9 15  1  0
 10 11  1  0
 11 12  1  0
 11 13  2  0
 12 32  1  0
 12 33  1  0
 13 14  1  0
 13 20  1  0
 14 15  2  0
 14 34  1  0
 15 16  1  0
 16 17  2  0
 16 18  1  0
 18 19  2  0
 19 35  1  0
 20 21  2  0
 20 22  1  0
M  CHG  1  22  -1
M  END
> <Mol2_MolInfo_Name>
8718

> <Mol2_MolInfo_Type>
SMALL

> <Mol2_MolInfo_Charge>
USER_CHARGES

> <Mol2_Substructures>
     1 ****        1 GROUP             0       ****    0 ROOT    

> <Name>
8718

$$$$
8754
  SciTegic06232017503D

 29 30  0  0  0  0            999 V2000
   -5.2698   -0.4090    1.4077 C   0  0
   -4.4253    0.9737    0.5903 S   0  0
   -2.7032    0.5826    0.4324 C   0  0
   -2.1869   -0.6329    0.8856 C   0  0
   -0.8288   -0.9054    0.7440 C   0  0
    0.0308    0.0395    0.1647 C   0  0
   -0.5047    1.2452   -0.3085 C   0  0
   -1.8623    1.5181   -0.1672 C   0  0
    1.4911   -0.2501   -0.0349 C   0  0
    2.1222    0.3001   -0.9397 O   0  0
    2.2138   -1.1183    0.9062 C   0  0
    3.3048   -1.8637    0.7286 C   0  0
    4.2191   -2.1891   -0.4375 C   0  0
    3.5840   -2.4358    1.9109 N   0  0
    2.7062   -2.0583    2.8581 C   0  0
    2.6727   -2.3913    4.0405 O   0  0
    1.8748   -1.2274    2.2038 N   0  0
   -6.3301   -0.1820    1.5185 H   0  0
   -4.8523   -0.5818    2.3999 H   0  0
   -5.1766   -1.3205    0.8171 H   0  0
   -2.8210   -1.3778    1.3405 H   0  0
   -0.4608   -1.8638    1.0809 H   0  0
    0.1255    1.9855   -0.7812 H   0  0
   -2.2578    2.4567   -0.5278 H   0  0
    3.8722   -1.7097   -1.3527 H   0  0
    4.2493   -3.2650   -0.6128 H   0  0
    5.2333   -1.8423   -0.2369 H   0  0
    4.3622   -3.0609    2.0625 H   0  0
    1.1006   -0.7352    2.6260 H   0  0
  1  2  1  0
  1 18  1  0
  1 19  1  0
  1 20  1  0
  2  3  1  0
  3  4  2  0
  3  8  1  0
  4  5  1  0
  4 21  1  0
  5  6  2  0
  5 22  1  0
  6  7  1  0
  6  9  1  0
  7  8  2  0
  7 23  1  0
  8 24  1  0
  9 10  2  0
  9 11  1  0
 11 12  2  0
 11 17  1  0
 12 13  1  0
 12 14  1  0
 13 25  1  0
 13 26  1  0
 13 27  1  0
 14 15  1  0
 14 28  1  0
 15 16  2  0
 15 17  1  0
 17 29  1  0
M  END
> <Mol2_MolInfo_Name>
8754

> <Mol2_MolInfo_Type>
SMALL

> <Mol2_MolInfo_Charge>
USER_CHARGES

> <Mol2_Substructures>
     1 ****        1 GROUP             0       ****    0 ROOT    

> <Name>
8754

$$$$
9509
  SciTegic06232017503D

 42 44  0  0  0  0            999 V2000
   -7.8010    0.4736    2.1726 C   0  0
   -7.7363    0.4349    0.7477 O   0  0
   -6.5309    0.6697    0.1099 C   0  0
   -6.5194    0.6351   -1.2889 C   0  0
   -5.3296    0.8707   -1.9822 C   0  0
   -4.1891    1.1340   -1.2099 C   0  0
   -2.9032    1.3986   -1.5467 N   0  0
   -2.3092    1.5651   -0.3815 C   0  0
   -3.0574    1.4188    0.6932 N   0  0
   -4.2854    1.1481    0.1877 C   0  0
   -5.4156    0.9240    0.8636 N   0  0
   -0.5110    1.9191   -0.2474 S   0  0  2  0  0  0
   -0.0707    2.3760   -1.6403 O   0  0
    0.0219    0.1498   -0.0789 C   0  0
    1.5416    0.0708   -0.0374 C   0  0
    2.1771    0.0756   -1.2267 N   0  0
    3.5142    0.0275   -1.3590 C   0  0
    4.3171   -0.0391   -0.2179 C   0  0
    5.8300   -0.0849   -0.3610 C   0  0
    3.7080   -0.0538    1.0488 C   0  0  1  0  0  0
    4.5008   -0.1122    2.1711 O   0  0
    4.5998   -1.4048    2.7567 C   0  0
    2.3022    0.0185    1.1467 C   0  0
    1.6201    0.0858    2.5102 C   0  0
   -8.8238    0.2772    2.4935 H   0  0
   -7.5145    1.4533    2.5586 H   0  0
   -7.1596   -0.2865    2.6217 H   0  0
   -7.4283    0.4286   -1.8348 H   0  0
   -5.2921    0.8515   -3.0613 H   0  0
   -0.4236   -0.2785    0.8188 H   0  0
   -0.3606   -0.4254   -0.9238 H   0  0
    3.8866    0.0474   -2.3731 H   0  0
    6.2899    0.6888    0.2547 H   0  0
    6.1508    0.0787   -1.3908 H   0  0
    6.2151   -1.0466   -0.0205 H   0  0
    5.2541   -1.3570    3.6270 H   0  0
    5.0292   -2.1253    2.0586 H   0  0
    3.6324   -1.7823    3.0905 H   0  0
    2.3061    0.3843    3.3031 H   0  0
    1.1762   -0.8769    2.7652 H   0  0
    0.8256    0.8327    2.5061 H   0  0
    1.6150    0.1335   -2.0642 H   0  0
  1  2  1  0
  1 25  1  0
  1 26  1  0
  1 27  1  0
  2  3  1  0
  3  4  2  0
  3 11  1  0
  4  5  1  0
  4 28  1  0
  5  6  2  0
  5 29  1  0
  6  7  1  0
  6 10  1  0
  7  8  1  0
  8  9  2  0
  8 12  1  0
  9 10  1  0
 10 11  2  0
 12 13  2  0
 12 14  1  0
 14 15  1  0
 14 30  1  0
 14 31  1  0
 15 16  1  0
 15 23  2  0
 16 17  1  0
 16 42  1  0
 17 18  2  0
 17 32  1  0
 18 19  1  0
 18 20  1  0
 19 33  1  0
 19 34  1  0
 19 35  1  0
 20 21  1  0
 20 23  1  0
 21 22  1  0
 22 36  1  0
 22 37  1  0
 22 38  1  0
 23 24  1  0
 24 39  1  0
 24 40  1  0
 24 41  1  0
M  END
> <Mol2_MolInfo_Name>
9509

> <Mol2_MolInfo_Type>
SMALL

> <Mol2_MolInfo_Charge>
USER_CHARGES

> <Mol2_Substructures>
     1 ****        1 GROUP             0       ****    0 ROOT    

> <Name>
9509

$$$$
9599
  SciTegic06232017503D

 34 34  0  0  0  0            999 V2000
   -2.9699    1.7558   -1.3199 N   0  3
   -2.2932    0.7108   -0.4770 C   0  0  2  0  0  0
   -2.8142    0.7336    0.9829 C   0  0
   -2.5533    1.9627    1.6354 O   0  0
   -0.7602    0.9100   -0.6204 C   0  0
   -0.2936    1.8462   -1.2796 O   0  0
   -0.0144   -0.0112    0.0209 N   0  0
    1.3835    0.1059    0.0922 N   0  0
    1.8274    0.7917    1.3042 C   0  0
    1.4090    0.0807    2.5920 C   0  0
    0.3849    0.6320    3.3672 C   0  0
   -0.0229    0.0100    4.5448 C   0  0
    0.5926   -1.1691    4.9641 C   0  0
    0.1738   -1.7613    6.1292 O   0  0
    1.6228   -1.7315    4.1988 C   0  0
    2.2287   -2.8945    4.6133 O   0  0
    2.0319   -1.1062    3.0114 C   0  0
    3.0410   -1.6600    2.2603 O   0  0
   -2.6349    1.6837   -2.2702 H   0  0
   -2.7543    2.6676   -0.9415 H   0  0
   -2.5701   -0.2288   -0.9573 H   0  0
   -3.8904    0.5561    1.0019 H   0  0
   -2.3634   -0.0698    1.5675 H   0  0
   -2.8872    1.9117    2.5348 H   0  0
   -0.3950   -0.7540    0.5894 H   0  0
    1.7865   -0.8141   -0.0209 H   0  0
    2.9153    0.8614    1.2778 H   0  0
    1.4628    1.8205    1.2959 H   0  0
   -0.1004    1.5458    3.0561 H   0  0
   -0.8171    0.4492    5.1313 H   0  0
   -0.5285   -1.2742    6.5665 H   0  0
    1.8671   -3.2225    5.4405 H   0  0
    3.3973   -2.4578    2.6590 H   0  0
   -3.9681    1.6042   -1.2963 H   0  0
  1  2  1  0
  1 19  1  0
  1 20  1  0
  1 34  1  0
  2  3  1  0
  2  5  1  0
  2 21  1  0
  3  4  1  0
  3 22  1  0
  3 23  1  0
  4 24  1  0
  5  6  2  0
  5  7  1  0
  7  8  1  0
  7 25  1  0
  8  9  1  0
  8 26  1  0
  9 10  1  0
  9 27  1  0
  9 28  1  0
 10 11  2  0
 10 17  1  0
 11 12  1  0
 11 29  1  0
 12 13  2  0
 12 30  1  0
 13 14  1  0
 13 15  1  0
 14 31  1  0
 15 16  1  0
 15 17  2  0
 16 32  1  0
 17 18  1  0
 18 33  1  0
M  CHG  1   1   1
M  END
> <Mol2_MolInfo_Name>
9599

> <Mol2_MolInfo_Type>
SMALL

> <Mol2_MolInfo_Charge>
USER_CHARGES

> <Mol2_Substructures>
     1 ****        1 GROUP             0       ****    0 ROOT    

> <Name>
9599

$$$$
9599
  SciTegic06232017503D

 33 33  0  0  0  0            999 V2000
   -2.8700   -0.7281    0.7241 N   0  0
   -2.2845    0.5179    0.1999 C   0  0  2  0  0  0
   -2.5741    0.7529   -1.3093 C   0  0
   -2.0517   -0.2467   -2.1669 O   0  0
   -0.8037    0.5542    0.6499 C   0  0
   -0.5584    0.9088    1.8067 O   0  0
    0.1341    0.2003   -0.2553 N   0  0
    1.5139    0.2581    0.0151 N   0  0
    1.9597   -0.7795    0.9407 C   0  0
    3.4764   -0.7550    1.0792 C   0  0
    4.2357   -1.7068    0.3928 C   0  0
    5.6246   -1.7145    0.5008 C   0  0
    6.2710   -0.7697    1.2967 C   0  0
    7.6402   -0.7999    1.3859 O   0  0
    5.5232    0.1911    1.9901 C   0  0
    6.1630    1.1233    2.7733 O   0  0
    4.1244    0.1985    1.8823 C   0  0
    3.3928    1.1430    2.5624 O   0  0
   -2.8706   -0.7168    1.7343 H   0  0
   -3.8385   -0.8078    0.4494 H   0  0
   -2.7724    1.3483    0.7138 H   0  0
   -3.6502    0.8127   -1.4765 H   0  0
   -2.1652    1.7144   -1.6228 H   0  0
   -2.3101   -0.0416   -3.0685 H   0  0
   -0.0848   -0.0261   -1.2154 H   0  0
    1.7368    1.1915    0.3317 H   0  0
    1.5159   -0.6350    1.9263 H   0  0
    1.6344   -1.7588    0.5847 H   0  0
    3.7498   -2.4450   -0.2288 H   0  0
    6.1957   -2.4577   -0.0366 H   0  0
    8.0323   -1.5066    0.8680 H   0  0
    7.1174    1.0164    2.7642 H   0  0
    3.9477    1.7328    3.0782 H   0  0
  1  2  1  0
  1 19  1  0
  1 20  1  0
  2  3  1  0
  2  5  1  0
  2 21  1  0
  3  4  1  0
  3 22  1  0
  3 23  1  0
  4 24  1  0
  5  6  2  0
  5  7  1  0
  7  8  1  0
  7 25  1  0
  8  9  1  0
  8 26  1  0
  9 10  1  0
  9 27  1  0
  9 28  1  0
 10 11  2  0
 10 17  1  0
 11 12  1  0
 11 29  1  0
 12 13  2  0
 12 30  1  0
 13 14  1  0
 13 15  1  0
 14 31  1  0
 15 16  1  0
 15 17  2  0
 16 32  1  0
 17 18  1  0
 18 33  1  0
M  END
> <Mol2_MolInfo_Name>
9599

> <Mol2_MolInfo_Type>
SMALL

> <Mol2_MolInfo_Charge>
USER_CHARGES

> <Mol2_Substructures>
     1 ****        1 GROUP             0       ****    0 ROOT    

> <Name>
9599

$$$$
349
  SciTegic06232017503D

 80 83  0  0  0  0            999 V2000
   -3.8242    1.6480    2.6420 C   0  0
   -3.0975    0.8744    1.5290 C   0  0  2  0  0  0
   -2.1704    1.7821    0.9197 O   0  0
   -1.3643    1.2148   -0.0822 C   0  0  1  0  0  0
   -0.5674    0.1794    0.4292 O   0  0
    0.7933    0.1229   -0.0060 C   0  0  2  0  0  0
    1.1405   -1.3395   -0.3667 C   0  0  1  0  0  0
    0.4015   -1.7653   -1.4973 O   0  0
    2.6505   -1.4755   -0.6249 C   0  0  2  0  0  0
    2.9091   -2.8333   -0.8331 O   0  0
    4.2118   -3.1573   -1.3114 C   0  0
    4.2781   -3.0449   -2.8458 C   0  0
    5.6157   -3.4995   -3.4092 C   0  0
    6.6641   -2.5867   -3.5556 C   0  0
    7.8916   -3.0034   -4.0707 C   0  0
    8.0816   -4.3356   -4.4428 C   0  0
    9.2971   -4.7235   -4.9474 O   0  0
    7.0347   -5.2554   -4.2968 C   0  0
    7.1952   -6.5710   -4.6537 O   0  0
    5.8070   -4.8342   -3.7808 C   0  0
    3.3571   -1.0255    0.5037 O   0  0
    3.2025    0.3747    0.7600 C   0  0  2  0  0  0
    4.1908    0.7357    1.8902 C   0  0
    4.3615    2.1331    2.0191 O   0  0
    1.7196    0.6476    1.1146 C   0  0  1  0  0  0
    1.4937    2.0414    1.3482 O   0  0
    0.7064    2.4843    2.3625 C   0  0
    0.1498    1.7551    3.1885 O   0  0
    0.5796    3.9366    2.3527 C   0  0
   -0.2492    4.5987    3.1891 C   0  0
   -0.4561    6.0621    3.2512 C   0  0
   -1.3162    6.5775    4.2280 C   0  0
   -1.5431    7.9499    4.3282 C   0  0
   -0.9124    8.8305    3.4502 C   0  0
   -1.1485   10.1772    3.5651 O   0  0
   -0.0503    8.3311    2.4670 C   0  0
    0.5818    9.1747    1.5878 O   0  0
    0.1743    6.9558    2.3722 C   0  0
   -2.2191    0.6717   -1.2389 C   0  0  2  0  0  0
   -2.8149    1.7383   -1.9595 O   0  0
   -3.2595   -0.3382   -0.6979 C   0  0  2  0  0  0
   -4.0968   -0.8318   -1.7304 O   0  0
   -4.0610    0.2700    0.4751 C   0  0  1  0  0  0
   -4.9337   -0.6849    1.0562 O   0  0
   -4.5211    1.0089    3.1848 H   0  0
   -4.3875    2.4891    2.2365 H   0  0
   -3.1128    2.0455    3.3669 H   0  0
   -2.5331    0.0694    2.0050 H   0  0
   -0.7465    2.0698   -0.3659 H   0  0
    0.9296    0.7315   -0.9043 H   0  0
    0.8769   -1.9968    0.4642 H   0  0
    0.5361   -2.7096   -1.6082 H   0  0
    2.9904   -0.8813   -1.4773 H   0  0
    4.9779   -2.5421   -0.8348 H   0  0
    4.4129   -4.1868   -1.0129 H   0  0
    3.4806   -3.6381   -3.2962 H   0  0
    4.0857   -2.0203   -3.1663 H   0  0
    6.5305   -1.5535   -3.2695 H   0  0
    8.6948   -2.2892   -4.1803 H   0  0
    9.3211   -5.6568   -5.1715 H   0  0
    6.4055   -7.0970   -4.5082 H   0  0
    5.0005   -5.5447   -3.6670 H   0  0
    3.4859    0.9318   -0.1367 H   0  0
    3.8668    0.3165    2.8436 H   0  0
    5.1721    0.3095    1.6775 H   0  0
    4.9898    2.3006    2.7256 H   0  0
    1.5016    0.0943    2.0304 H   0  0
    1.1859    4.4626    1.6304 H   0  0
   -0.8384    4.0252    3.8930 H   0  0
   -1.8166    5.9146    4.9195 H   0  0
   -2.2108    8.3270    5.0893 H   0  0
   -0.6726   10.6896    2.9068 H   0  0
    1.1442    8.7104    0.9636 H   0  0
    0.8427    6.5936    1.6055 H   0  0
   -1.5545    0.1740   -1.9460 H   0  0
   -2.1207    2.2353   -2.3983 H   0  0
   -2.7194   -1.2125   -0.3292 H   0  0
   -4.5423   -0.0859   -2.1393 H   0  0
   -4.6997    1.0666    0.0893 H   0  0
   -4.4202   -1.4581    1.3014 H   0  0
  1  2  1  0
  1 45  1  0
  1 46  1  0
  1 47  1  0
  2  3  1  0
  2 43  1  0
  2 48  1  0
  3  4  1  0
  4  5  1  0
  4 39  1  0
  4 49  1  0
  5  6  1  0
  6  7  1  0
  6 25  1  0
  6 50  1  0
  7  8  1  0
  7  9  1  0
  7 51  1  0
  8 52  1  0
  9 10  1  0
  9 21  1  0
  9 53  1  0
 10 11  1  0
 11 12  1  0
 11 54  1  0
 11 55  1  0
 12 13  1  0
 12 56  1  0
 12 57  1  0
 13 14  2  0
 13 20  1  0
 14 15  1  0
 14 58  1  0
 15 16  2  0
 15 59  1  0
 16 17  1  0
 16 18  1  0
 17 60  1  0
 18 19  1  0
 18 20  2  0
 19 61  1  0
 20 62  1  0
 21 22  1  0
 22 23  1  0
 22 25  1  0
 22 63  1  0
 23 24  1  0
 23 64  1  0
 23 65  1  0
 24 66  1  0
 25 26  1  0
 25 67  1  0
 26 27  1  0
 27 28  2  0
 27 29  1  0
 29 30  2  0
 29 68  1  0
 30 31  1  0
 30 69  1  0
 31 32  2  0
 31 38  1  0
 32 33  1  0
 32 70  1  0
 33 34  2  0
 33 71  1  0
 34 35  1  0
 34 36  1  0
 35 72  1  0
 36 37  1  0
 36 38  2  0
 37 73  1  0
 38 74  1  0
 39 40  1  0
 39 41  1  0
 39 75  1  0
 40 76  1  0
 41 42  1  0
 41 43  1  0
 41 77  1  0
 42 78  1  0
 43 44  1  0
 43 79  1  0
 44 80  1  0
M  END
> <Mol2_MolInfo_Name>
349

> <Mol2_MolInfo_Type>
SMALL

> <Mol2_MolInfo_Charge>
USER_CHARGES

> <Mol2_Substructures>
     1 UNK         1 GROUP             0       ****    0 ROOT    

> <Name>
349

$$$$
522
  SciTegic06232017503D

 51 54  0  0  0  0            999 V2000
    0.6416   -6.0911    1.1004 O   0  0
    0.3099   -4.7626    1.0927 C   0  0
    0.0964   -4.0912    2.2941 C   0  0
   -0.2422   -2.7375    2.2915 C   0  0
   -0.4524   -2.1139    3.4941 O   0  0
   -0.3750   -2.0311    1.0852 C   0  0
   -0.7644   -0.5585    1.0292 C   0  0
   -0.1927    0.0926   -0.2413 C   0  0  1  0  0  0
    1.2266    0.2644   -0.1803 O   0  0
    1.8130    1.2963    0.4825 C   0  0
    1.1798    2.1634    1.0907 O   0  0
    3.3100    1.2807    0.3828 C   0  0
    4.0530    2.3092    0.9803 C   0  0
    5.4467    2.3277    0.9038 C   0  0
    6.1319    3.3551    1.5031 O   0  0
    6.1247    1.3082    0.2240 C   0  0
    7.4974    1.3189    0.1456 O   0  0
    5.3956    0.2748   -0.3763 C   0  0
    6.0320   -0.7392   -1.0484 O   0  0
    4.0023    0.2639   -0.2959 C   0  0
   -0.5811   -0.7640   -1.4723 C   0  0  2  0  0  0
   -0.1693   -2.1375   -1.3738 O   0  0
   -0.1458   -2.7250   -0.1202 C   0  0
    0.1917   -4.0785   -0.1145 C   0  0
   -0.0949   -0.1490   -2.7838 C   0  0
    1.1892   -0.4277   -3.2637 C   0  0
    1.6474    0.1525   -4.4469 C   0  0
    2.9157   -0.1403   -4.8817 O   0  0
    0.8166    1.0211   -5.1678 C   0  0
    1.2610    1.5971   -6.3345 O   0  0
   -0.4712    1.3021   -4.6915 C   0  0
   -1.3067    2.1506   -5.3741 O   0  0
   -0.9201    0.7192   -3.5050 C   0  0
    0.7648   -6.4516    0.2195 H   0  0
    0.1918   -4.6236    3.2299 H   0  0
   -0.3375   -2.7038    4.2425 H   0  0
   -1.8527   -0.4904    1.0086 H   0  0
   -0.4399   -0.0198    1.9204 H   0  0
   -0.6299    1.0852   -0.3683 H   0  0
    3.5526    3.1079    1.5107 H   0  0
    5.5569    3.9894    1.9370 H   0  0
    7.8457    0.5668   -0.3393 H   0  0
    5.4253   -1.3878   -1.4123 H   0  0
    3.4687   -0.5482   -0.7695 H   0  0
   -1.6711   -0.7937   -1.5352 H   0  0
    0.3710   -4.5927   -1.0478 H   0  0
    1.8368   -1.0914   -2.7086 H   0  0
    3.3819   -0.7464   -4.3020 H   0  0
    0.6047    2.1696   -6.7390 H   0  0
   -2.1588    2.2639   -4.9471 H   0  0
   -1.9118    0.9461   -3.1401 H   0  0
  1  2  1  0
  1 34  1  0
  2  3  2  0
  2 24  1  0
  3  4  1  0
  3 35  1  0
  4  5  1  0
  4  6  2  0
  5 36  1  0
  6  7  1  0
  6 23  1  0
  7  8  1  0
  7 37  1  0
  7 38  1  0
  8  9  1  0
  8 21  1  0
  8 39  1  0
  9 10  1  0
 10 11  2  0
 10 12  1  0
 12 13  2  0
 12 20  1  0
 13 14  1  0
 13 40  1  0
 14 15  1  0
 14 16  2  0
 15 41  1  0
 16 17  1  0
 16 18  1  0
 17 42  1  0
 18 19  1  0
 18 20  2  0
 19 43  1  0
 20 44  1  0
 21 22  1  0
 21 25  1  0
 21 45  1  0
 22 23  1  0
 23 24  2  0
 24 46  1  0
 25 26  2  0
 25 33  1  0
 26 27  1  0
 26 47  1  0
 27 28  1  0
 27 29  2  0
 28 48  1  0
 29 30  1  0
 29 31  1  0
 30 49  1  0
 31 32  1  0
 31 33  2  0
 32 50  1  0
 33 51  1  0
M  END
> <Mol2_MolInfo_Name>
522

> <Mol2_MolInfo_Type>
SMALL

> <Mol2_MolInfo_Charge>
USER_CHARGES

> <Mol2_Substructures>
     1 UNK         1 GROUP             0       ****    0 ROOT    

> <Name>
522

$$$$
703
  SciTegic06232017503D

 27 27  0  0  0  0            999 V2000
   -2.0946    1.5080    0.0185 C   0  0
   -0.5623    1.4199    0.0090 N   0  3
   -0.0313   -0.0239   -0.0403 C   0  0
    1.5130   -0.0360   -0.0385 C   0  0  2  0  0  0
    2.0091    0.7411   -1.1159 O   0  0
    2.0460   -1.4685   -0.0437 C   0  0
    2.3012   -2.1150    1.1708 C   0  0
    2.7786   -3.4251    1.1887 C   0  0
    3.0047   -4.1064   -0.0077 C   0  0
    3.4728   -5.3953    0.0341 O   0  0
    2.7504   -3.4707   -1.2296 C   0  0
    2.9646   -4.1197   -2.4199 O   0  0
    2.2710   -2.1589   -1.2431 C   0  0
   -2.3390    2.5702    0.0436 H   0  0
   -2.4448    0.9935    0.9141 H   0  0
   -2.4536    1.0340   -0.8959 H   0  0
   -0.2102    1.9200   -0.7957 H   0  0
   -0.4450   -0.4985    0.8511 H   0  0
   -0.4594   -0.4727   -0.9386 H   0  0
    1.8665    0.4448    0.8757 H   0  0
    2.9631    0.8108   -1.0273 H   0  0
    2.1292   -1.6044    2.1074 H   0  0
    2.9713   -3.9105    2.1348 H   0  0
    3.5812   -5.7785   -0.8397 H   0  0
    2.7676   -3.5782   -3.1876 H   0  0
    2.0704   -1.6775   -2.1897 H   0  0
   -0.2019    1.8749    0.8362 H   0  0
  1  2  1  0
  1 14  1  0
  1 15  1  0
  1 16  1  0
  2  3  1  0
  2 17  1  0
  2 27  1  0
  3  4  1  0
  3 18  1  0
  3 19  1  0
  4  5  1  0
  4  6  1  0
  4 20  1  0
  5 21  1  0
  6  7  2  0
  6 13  1  0
  7  8  1  0
  7 22  1  0
  8  9  2  0
  8 23  1  0
  9 10  1  0
  9 11  1  0
 10 24  1  0
 11 12  1  0
 11 13  2  0
 12 25  1  0
 13 26  1  0
M  CHG  1   2   1
M  END
> <Mol2_MolInfo_Name>
703

> <Mol2_MolInfo_Type>
SMALL

> <Mol2_MolInfo_Charge>
USER_CHARGES

> <Mol2_Substructures>
     1 UNK         1 GROUP             0       ****    0 ROOT    

> <Name>
703

$$$$
841
  SciTegic06232017503D

 21 20  0  0  0  0            999 V2000
   -2.4259    1.4518    0.1789 C   0  0
   -0.6139    1.7905   -0.0171 S   0  0  1  0  0  0
   -0.1300    2.4407    1.2803 O   0  0
   -0.0385    0.0258    0.0031 C   0  0
    1.4974   -0.0276    0.0256 C   0  0
    2.0471   -1.4684    0.0373 C   0  0
    3.5842   -1.5616    0.1152 C   0  0
    4.1945   -0.9960   -1.0566 N   0  0
    5.2172   -1.0600   -1.7303 C   0  0
    6.4833   -1.2661   -2.6675 S   0  0
   -2.8004    0.8756   -0.6671 H   0  0
   -2.9780    2.3897    0.2350 H   0  0
   -2.6118    0.8893    1.0941 H   0  0
   -0.4499   -0.4717    0.8821 H   0  0
   -0.4308   -0.4824   -0.8784 H   0  0
    1.8865    0.5101   -0.8403 H   0  0
    1.8649    0.5064    0.9034 H   0  0
    1.6288   -1.9984    0.8942 H   0  0
    1.6920   -2.0060   -0.8438 H   0  0
    3.9528   -1.0515    1.0064 H   0  0
    3.8809   -2.6078    0.2074 H   0  0
  1  2  1  0
  1 11  1  0
  1 12  1  0
  1 13  1  0
  2  3  2  0
  2  4  1  0
  4  5  1  0
  4 14  1  0
  4 15  1  0
  5  6  1  0
  5 16  1  0
  5 17  1  0
  6  7  1  0
  6 18  1  0
  6 19  1  0
  7  8  1  0
  7 20  1  0
  7 21  1  0
  8  9  2  0
  9 10  2  0
M  END
> <Mol2_MolInfo_Name>
841

> <Mol2_MolInfo_Type>
SMALL

> <Mol2_MolInfo_Charge>
USER_CHARGES

> <Mol2_Substructures>
     1 UNK         1 GROUP             0       ****    0 ROOT    

> <Name>
841

$$$$
841
  SciTegic06232017503D

 21 20  0  0  0  0            999 V2000
   -2.4746    1.2799   -0.2835 C   0  0
   -0.6847    1.7593   -0.3401 S   0  0  2  0  0  0
   -0.3323    2.0269   -1.8043 O   0  0
    0.0172    0.0983    0.1000 C   0  0
    1.5488    0.1219   -0.0266 C   0  0
    2.1970   -1.2267    0.3310 C   0  0
    3.7362   -1.2017    0.2049 C   0  0
    4.3321   -2.4699    0.5445 N   0  0
    4.0821   -3.6184    0.9023 C   0  0
    3.6089   -5.0625    1.3659 S   0  0
   -2.7496    0.9463    0.7170 H   0  0
   -2.6747    0.4724   -0.9880 H   0  0
   -3.0986    2.1323   -0.5516 H   0  0
   -0.2837   -0.1524    1.1178 H   0  0
   -0.4083   -0.6541   -0.5650 H   0  0
    1.8233    0.3980   -1.0460 H   0  0
    1.9532    0.9032    0.6187 H   0  0
    1.9173   -1.4981    1.3506 H   0  0
    1.7889   -2.0025   -0.3196 H   0  0
    4.0252   -0.9439   -0.8148 H   0  0
    4.1540   -0.4358    0.8594 H   0  0
  1  2  1  0
  1 11  1  0
  1 12  1  0
  1 13  1  0
  2  3  2  0
  2  4  1  0
  4  5  1  0
  4 14  1  0
  4 15  1  0
  5  6  1  0
  5 16  1  0
  5 17  1  0
  6  7  1  0
  6 18  1  0
  6 19  1  0
  7  8  1  0
  7 20  1  0
  7 21  1  0
  8  9  2  0
  9 10  2  0
M  END
> <Mol2_MolInfo_Name>
841

> <Mol2_MolInfo_Type>
SMALL

> <Mol2_MolInfo_Charge>
USER_CHARGES

> <Mol2_Substructures>
     1 UNK         1 GROUP             0       ****    0 ROOT    

> <Name>
841

$$$$
1209
  SciTegic06232017503D

 35 37  0  0  0  0            999 V2000
   -0.0479   -2.0102   -1.6196 O   0  0
   -0.5002   -0.6729   -1.4733 C   0  0  2  0  0  0
    0.0047    0.0118   -0.1775 C   0  0  2  0  0  0
   -0.4737    1.3573   -0.1099 O   0  0
   -1.8425    1.4953   -0.2183 C   0  0
   -2.3696    2.6253    0.4041 C   0  0
   -3.7368    2.8719    0.3524 C   0  0
   -4.2573    3.9788    0.9674 O   0  0
   -4.5743    1.9905   -0.3245 C   0  0
   -4.0535    0.8601   -0.9584 C   0  0
   -4.9509    0.0467   -1.6049 O   0  0
   -2.6645    0.5939   -0.9270 C   0  0
   -2.0381   -0.6132   -1.5742 C   0  0
   -2.7107   -1.4821   -2.1339 O   0  0
    1.5282    0.0044   -0.0624 C   0  0
    2.2991    0.8245   -0.8923 C   0  0
    3.6910    0.8238   -0.7958 C   0  0
    4.4147    1.6445   -1.6242 O   0  0
    4.3289   -0.0055    0.1364 C   0  0
    5.7007   -0.0078    0.2315 O   0  0
    3.5601   -0.8306    0.9690 C   0  0
    4.1543   -1.6552    1.8916 O   0  0
    2.1676   -0.8220    0.8672 C   0  0
   -0.3014   -2.3246   -2.4910 H   0  0
   -0.1143   -0.1266   -2.3344 H   0  0
   -0.3825   -0.5230    0.6945 H   0  0
   -1.7168    3.3072    0.9301 H   0  0
   -5.2092    4.0480    0.8671 H   0  0
   -5.6368    2.1858   -0.3595 H   0  0
   -5.8550    0.3614   -1.5393 H   0  0
    1.8127    1.4660   -1.6137 H   0  0
    3.8618    2.1661   -2.2104 H   0  0
    6.1159    0.5956   -0.3894 H   0  0
    3.5229   -2.1713    2.3975 H   0  0
    1.5821   -1.4626    1.5110 H   0  0
  1  2  1  0
  1 24  1  0
  2  3  1  0
  2 13  1  0
  2 25  1  0
  3  4  1  0
  3 15  1  0
  3 26  1  0
  4  5  1  0
  5  6  2  0
  5 12  1  0
  6  7  1  0
  6 27  1  0
  7  8  1  0
  7  9  2  0
  8 28  1  0
  9 10  1  0
  9 29  1  0
 10 11  1  0
 10 12  2  0
 11 30  1  0
 12 13  1  0
 13 14  2  0
 15 16  2  0
 15 23  1  0
 16 17  1  0
 16 31  1  0
 17 18  1  0
 17 19  2  0
 18 32  1  0
 19 20  1  0
 19 21  1  0
 20 33  1  0
 21 22  1  0
 21 23  2  0
 22 34  1  0
 23 35  1  0
M  END
> <Mol2_MolInfo_Name>
1209

> <Mol2_MolInfo_Type>
SMALL

> <Mol2_MolInfo_Charge>
USER_CHARGES

> <Mol2_Substructures>
     1 UNK         1 GROUP             0       ****    0 ROOT    

> <Name>
1209

$$$$
2491
  SciTegic06232017503D

 35 37  0  0  0  0            999 V2000
   -4.2133    4.8637   -0.0721 F   0  0
   -5.0058    3.7912   -0.0186 C   0  0  1  0  0  0
   -5.7528    3.8807    1.0824 F   0  0
   -5.8092    3.8157   -1.0828 F   0  0
   -4.2202    2.4808    0.0019 C   0  0
   -4.9135    1.2680    0.0356 C   0  0
   -4.2374    0.0507    0.0553 C   0  0
   -2.8234    0.0249    0.0388 C   0  0
   -2.0781   -1.1785    0.0548 C   0  0
   -0.6866   -1.1219    0.0324 C   0  0
   -0.0489    0.1198   -0.0037 C   0  0
    1.4288    0.1740   -0.0284 C   0  0
    2.1862    1.2950   -0.0209 C   0  0
    3.6576    1.2735   -0.0473 C   0  0
    4.2505    0.1906   -0.0793 O   0  0
    4.4378    2.5643   -0.0265 C   0  0
    3.8320    3.8358   -0.0229 C   0  0
    4.6358    4.9774   -0.0036 C   0  0
    5.9902    4.9297    0.0106 N   0  0
    6.5738    3.7068    0.0045 C   0  0
    5.8443    2.5171   -0.0141 C   0  0
   -0.7425    1.2913   -0.0156 N   0  0
   -2.1040    1.2563    0.0034 C   0  0
   -2.8210    2.4770   -0.0139 C   0  0
   -5.9942    1.2671    0.0466 H   0  0
   -4.7892   -0.8779    0.0820 H   0  0
   -2.5901   -2.1297    0.0829 H   0  0
   -0.1139   -2.0382    0.0428 H   0  0
    1.9200   -0.7898   -0.0539 H   0  0
    1.6946    2.2521    0.0069 H   0  0
    2.7636    3.9781   -0.0357 H   0  0
    4.1913    5.9619    0.0004 H   0  0
    7.6538    3.6894    0.0152 H   0  0
    6.3789    1.5776   -0.0176 H   0  0
   -2.2659    3.4042   -0.0399 H   0  0
  1  2  1  0
  2  3  1  0
  2  4  1  0
  2  5  1  0
  5  6  2  0
  5 24  1  0
  6  7  1  0
  6 25  1  0
  7  8  2  0
  7 26  1  0
  8  9  1  0
  8 23  1  0
  9 10  2  0
  9 27  1  0
 10 11  1  0
 10 28  1  0
 11 12  1  0
 11 22  2  0
 12 13  2  0
 12 29  1  0
 13 14  1  0
 13 30  1  0
 14 15  2  0
 14 16  1  0
 16 17  2  0
 16 21  1  0
 17 18  1  0
 17 31  1  0
 18 19  2  0
 18 32  1  0
 19 20  1  0
 20 21  2  0
 20 33  1  0
 21 34  1  0
 22 23  1  0
 23 24  2  0
 24 35  1  0
M  END
> <Mol2_MolInfo_Name>
2491

> <Mol2_MolInfo_Type>
SMALL

> <Mol2_MolInfo_Charge>
USER_CHARGES

> <Mol2_Substructures>
     1 UNK         1 GROUP             0       ****    0 ROOT    

> <Name>
2491

$$$$
3129
  SciTegic06232017502D

 19 20  0  0  0  0            999 V2000
   -4.0679    0.0584    0.0000 O   0  5
   -2.7949   -0.0140    0.0000 C   0  0
   -2.0830    1.1755    0.0000 C   0  0
   -0.6997    1.1781    0.0000 C   0  0
    0.0616    0.0008    0.0000 C   0  0
   -0.6505   -1.2638    0.0000 C   0  0
   -0.0329   -2.5575    0.0000 C   0  0
   -0.7979   -3.7175    0.0000 C   0  0
   -2.1769   -3.6060    0.0000 C   0  0
   -2.8202   -2.4205    0.0000 N   0  0
   -2.0926   -1.2585    0.0000 C   0  0
    1.5513    0.1443    0.0000 N   0  3
    2.2782   -0.8392    0.0000 O   0  0
    2.0295    1.2763    0.0000 O   0  5
   -2.6034    2.1234    0.0000 H   0  0
   -0.2161    2.1438    0.0000 H   0  0
    1.0319   -2.6954    0.0000 H   0  0
   -0.3254   -4.6887    0.0000 H   0  0
   -2.7993   -4.4885    0.0000 H   0  0
  1  2  1  0
  2  3  2  0
  2 11  1  0
  3  4  1  0
  3 15  1  0
  4  5  2  0
  4 16  1  0
  5  6  1  0
  5 12  1  0
  6  7  2  0
  6 11  1  0
  7  8  1  0
  7 17  1  0
  8  9  2  0
  8 18  1  0
  9 10  1  0
  9 19  1  0
 10 11  2  0
 12 13  2  0
 12 14  1  0
M  CHG  3   1  -1  12   1  14  -1
M  END
> <Mol2_MolInfo_Name>
3129

> <Mol2_MolInfo_Type>
SMALL

> <Mol2_MolInfo_Charge>
USER_CHARGES

> <Mol2_Substructures>
     1 UNK         1 GROUP             0       ****    0 ROOT    

> <Name>
3129

$$$$
3813
  SciTegic06232017503D

 65 69  0  0  0  0            999 V2000
    1.6182    3.6017   -4.6519 C   0  0
    0.1122    3.3254   -4.8241 C   0  0  2  0  0  0
   -0.6132    4.5666   -5.3900 C   0  0
   -0.4928    2.7776   -3.5316 C   0  0
   -0.1455    1.6044   -2.8611 C   0  0
   -0.9449    1.5564   -1.7393 C   0  0
   -1.0924    0.6134   -0.5627 C   0  0
   -0.1424   -0.5101   -0.5429 N   0  0
    1.2563   -0.3605   -0.3199 C   0  0
    2.0534   -1.4424   -0.3426 N   0  0
    3.3853   -1.3518   -0.1563 C   0  0
    4.1416   -2.5572   -0.2233 N   0  0
    5.4072   -2.7756    0.2303 C   0  0
    6.1843   -2.0662    1.1652 C   0  0
    7.3968   -2.7272    1.2706 C   0  0
    7.2468   -3.7915    0.4239 N   0  0
    6.0590   -3.8370   -0.1881 N   0  0
    8.6580   -2.4814    2.0714 C   0  0  1  0  0  0
    9.1272   -1.0708    2.3325 C   0  0
    8.5747   -1.9120    3.4665 C   0  0
    3.9389   -0.0742    0.0353 C   0  0
    3.0866    1.0470    0.0753 C   0  0  2  0  0  0
    1.7430    0.8901   -0.1069 N   0  0
    3.5571    2.3576    0.2246 N   0  0
    2.6637    3.5047    0.4934 C   0  0
    2.5911    3.8495    1.9961 C   0  0
    4.0110    4.1590    2.5095 N   0  3  1  0  0  0
    3.9942    4.4712    4.0183 C   0  0
    4.9700    2.9927    2.1988 C   0  0
    4.9198    2.6877    0.6857 C   0  0
   -1.7491    2.6462   -1.7513 O   0  0
   -1.4541    3.4076   -2.8832 N   0  0
    2.1622    2.6968   -4.3781 H   0  0
    1.7993    4.3457   -3.8748 H   0  0
    2.0607    3.9789   -5.5746 H   0  0
    0.0174    2.5468   -5.5826 H   0  0
   -1.6630    4.3537   -5.5957 H   0  0
   -0.1599    4.8966   -6.3254 H   0  0
   -0.5722    5.4066   -4.6954 H   0  0
    0.6092    0.8897   -3.1530 H   0  0
   -0.9608    1.1448    0.3807 H   0  0
   -2.0858    0.1652   -0.5375 H   0  0
   -0.5036   -1.4302   -0.7501 H   0  0
    3.6752   -3.3439   -0.6514 H   0  0
    5.9048   -1.1774    1.7105 H   0  0
    7.9519   -4.4974    0.2674 H   0  0
    9.4407   -3.2226    1.9021 H   0  0
   10.1977   -0.8676    2.2954 H   0  0
    8.5346   -0.2393    1.9497 H   0  0
    7.5944   -1.6710    3.8789 H   0  0
    9.2585   -2.2975    4.2232 H   0  0
    5.0061    0.0324    0.1179 H   0  0
    3.0699    4.3547   -0.0581 H   0  0
    1.6587    3.3482    0.1001 H   0  0
    2.0184    4.7660    2.1466 H   0  0
    2.1767    3.0399    2.6001 H   0  0
    3.6325    3.5863    4.5449 H   0  0
    3.3303    5.3245    4.1634 H   0  0
    5.0161    4.7210    4.3068 H   0  0
    5.9616    3.3505    2.4799 H   0  0
    4.6858    2.1389    2.8171 H   0  0
    5.6524    1.9244    0.4345 H   0  0
    5.2259    3.5755    0.1289 H   0  0
    1.6419   -2.3503   -0.5039 H   0  0
    4.3448    4.9698    2.0068 H   0  0
  1  2  1  0
  1 33  1  0
  1 34  1  0
  1 35  1  0
  2  3  1  0
  2  4  1  0
  2 36  1  0
  3 37  1  0
  3 38  1  0
  3 39  1  0
  4  5  1  0
  4 32  2  0
  5  6  2  0
  5 40  1  0
  6  7  1  0
  6 31  1  0
  7  8  1  0
  7 41  1  0
  7 42  1  0
  8  9  1  0
  8 43  1  0
  9 10  1  0
  9 23  2  0
 10 11  1  0
 10 64  1  0
 11 12  1  0
 11 21  2  0
 12 13  1  0
 12 44  1  0
 13 14  1  0
 13 17  2  0
 14 15  2  0
 14 45  1  0
 15 16  1  0
 15 18  1  0
 16 17  1  0
 16 46  1  0
 18 19  1  0
 18 20  1  0
 18 47  1  0
 19 20  1  0
 19 48  1  0
 19 49  1  0
 20 50  1  0
 20 51  1  0
 21 22  1  0
 21 52  1  0
 22 23  1  0
 22 24  1  0
 24 25  1  0
 24 30  1  0
 25 26  1  0
 25 53  1  0
 25 54  1  0
 26 27  1  0
 26 55  1  0
 26 56  1  0
 27 28  1  0
 27 29  1  0
 27 65  1  0
 28 57  1  0
 28 58  1  0
 28 59  1  0
 29 30  1  0
 29 60  1  0
 29 61  1  0
 30 62  1  0
 30 63  1  0
 31 32  1  0
M  CHG  1  27   1
M  END
> <Mol2_MolInfo_Name>
3813

> <Mol2_MolInfo_Type>
SMALL

> <Mol2_MolInfo_Charge>
USER_CHARGES

> <Mol2_Substructures>
     1 UNK         1 GROUP             0       ****    0 ROOT    

> <Name>
3813

$$$$
3813
  SciTegic06232017503D

 64 68  0  0  0  0            999 V2000
   -6.3486    1.5277    2.0643 C   0  0
   -5.7908    0.1453    1.6778 C   0  0  2  0  0  0
   -6.4907   -0.9747    2.4801 C   0  0
   -4.2648    0.1249    1.7690 C   0  0
   -3.3550    0.8887    1.0345 C   0  0
   -2.1045    0.4974    1.4565 C   0  0
   -0.6940    0.9269    1.1280 C   0  0
    0.2451   -0.1941    0.9968 N   0  0
    1.6235   -0.0359    0.6916 C   0  0
    2.1044    1.2209    0.5077 N   0  0
    3.4295    1.3543    0.2168 C   0  0
    4.0025    2.6239    0.0147 N   0  0
    3.4383    3.8826    0.0604 C   0  0
    4.1127    5.0882   -0.1824 C   0  0
    3.1928    6.1136   -0.0373 C   0  0
    2.0390    5.4521    0.2827 N   0  0
    2.1734    4.1239    0.3435 N   0  0
    3.2726    7.6205   -0.1627 C   0  0  1  0  0  0
    4.5084    8.3571    0.2931 C   0  0
    4.1877    8.2497   -1.1847 C   0  0
    4.2664    0.2336    0.1081 C   0  0
    3.7256   -1.0513    0.3057 C   0  0  1  0  0  0
    2.4056   -1.1254    0.5936 N   0  0
    4.5032   -2.2601    0.2075 N   0  0
    5.9736   -2.2407    0.0037 C   0  0
    6.5113   -3.5217   -0.6707 C   0  0
    6.0502   -4.7223    0.0230 N   0  0
    6.6049   -5.9151   -0.6094 C   0  0
    4.5902   -4.7808    0.0195 C   0  0
    3.9856   -3.5517    0.7301 C   0  0
   -2.2619   -0.4219    2.4402 O   0  0
   -3.6254   -0.6603    2.6149 N   0  0
   -5.9597    2.3115    1.4132 H   0  0
   -6.0879    1.7884    3.0910 H   0  0
   -7.4363    1.5525    1.9866 H   0  0
   -6.0543   -0.0219    0.6323 H   0  0
   -6.1651   -1.9620    2.1501 H   0  0
   -7.5736   -0.9327    2.3576 H   0  0
   -6.2821   -0.8941    3.5478 H   0  0
   -3.5852    1.6281    0.2821 H   0  0
   -0.6482    1.4919    0.1961 H   0  0
   -0.2878    1.5760    1.9047 H   0  0
   -0.1184   -1.1262    1.1341 H   0  0
    4.9871    2.5557   -0.1964 H   0  0
    5.1563    5.2009   -0.4372 H   0  0
    1.1543    5.9050    0.4617 H   0  0
    2.3224    8.1288    0.0064 H   0  0
    4.3823    9.3166    0.7955 H   0  0
    5.3432    7.7845    0.6989 H   0  0
    4.7984    7.6019   -1.8147 H   0  0
    3.8372    9.1338   -1.7180 H   0  0
    5.3119    0.3775   -0.1169 H   0  0
    6.2336   -1.4098   -0.6499 H   0  0
    6.4664   -2.0512    0.9583 H   0  0
    6.1591   -3.5583   -1.7040 H   0  0
    7.6019   -3.4896   -0.6701 H   0  0
    6.2904   -6.8139   -0.0770 H   0  0
    7.6953   -5.8895   -0.5888 H   0  0
    6.2867   -6.0077   -1.6495 H   0  0
    4.2409   -4.8090   -1.0149 H   0  0
    4.2538   -5.6848    0.5297 H   0  0
    4.1536   -3.5926    1.8071 H   0  0
    2.9053   -3.5895    0.5910 H   0  0
    1.9917   -2.0344    0.7400 H   0  0
  1  2  1  0
  1 33  1  0
  1 34  1  0
  1 35  1  0
  2  3  1  0
  2  4  1  0
  2 36  1  0
  3 37  1  0
  3 38  1  0
  3 39  1  0
  4  5  1  0
  4 32  2  0
  5  6  2  0
  5 40  1  0
  6  7  1  0
  6 31  1  0
  7  8  1  0
  7 41  1  0
  7 42  1  0
  8  9  1  0
  8 43  1  0
  9 10  2  0
  9 23  1  0
 10 11  1  0
 11 12  1  0
 11 21  2  0
 12 13  1  0
 12 44  1  0
 13 14  1  0
 13 17  2  0
 14 15  2  0
 14 45  1  0
 15 16  1  0
 15 18  1  0
 16 17  1  0
 16 46  1  0
 18 19  1  0
 18 20  1  0
 18 47  1  0
 19 20  1  0
 19 48  1  0
 19 49  1  0
 20 50  1  0
 20 51  1  0
 21 22  1  0
 21 52  1  0
 22 23  1  0
 22 24  1  0
 23 64  1  0
 24 25  1  0
 24 30  1  0
 25 26  1  0
 25 53  1  0
 25 54  1  0
 26 27  1  0
 26 55  1  0
 26 56  1  0
 27 28  1  0
 27 29  1  0
 28 57  1  0
 28 58  1  0
 28 59  1  0
 29 30  1  0
 29 60  1  0
 29 61  1  0
 30 62  1  0
 30 63  1  0
 31 32  1  0
M  END
> <Mol2_MolInfo_Name>
3813

> <Mol2_MolInfo_Type>
SMALL

> <Mol2_MolInfo_Charge>
USER_CHARGES

> <Mol2_Substructures>
     1 UNK         1 GROUP             0       ****    0 ROOT    

> <Name>
3813

$$$$
3813
  SciTegic06232017503D

 64 68  0  0  0  0            999 V2000
   -2.9741    3.3787   -4.1516 C   0  0
   -2.2155    2.0445   -4.2760 C   0  0  2  0  0  0
   -3.1514    0.9038   -4.7153 C   0  0
   -1.4964    1.6969   -2.9808 C   0  0
   -2.0314    1.4785   -1.7096 C   0  0
   -0.9587    1.1850   -0.8981 C   0  0
   -0.7995    0.9159    0.5841 C   0  0
    0.1566   -0.1510    0.9185 N   0  0
    1.5680    0.0280    0.9638 C   0  0
    2.3578   -1.0176    1.2593 N   0  0
    3.7022   -0.9091    1.2992 C   0  0
    4.5482   -2.0157    1.6015 N   0  0
    4.1972   -3.2853    1.9539 C   0  0
    2.9392   -3.8708    2.1975 C   0  0
    3.1657   -5.1961    2.5304 C   0  0
    4.5275   -5.3074    2.4656 N   0  0
    5.1499   -4.1741    2.1268 N   0  0
    2.2608   -6.3518    2.9009 C   0  0  1  0  0  0
    1.0254   -6.1108    3.7337 C   0  0
    0.8962   -6.4817    2.2692 C   0  0
    4.2707    0.3395    1.0153 C   0  0
    3.4287    1.4308    0.7173 C   0  0  2  0  0  0
    2.0733    1.2600    0.6943 N   0  0
    3.9167    2.7008    0.3847 N   0  0
    5.3344    3.0830    0.5513 C   0  0
    5.8123    4.2724   -0.3136 C   0  0
    4.9123    5.4161   -0.1982 N   0  0
    5.3953    6.5239   -1.0163 C   0  0
    3.5713    5.0234   -0.6186 C   0  0
    3.0322    3.8814    0.2687 C   0  0
    0.1682    1.2697   -1.6491 O   0  0
   -0.1856    1.5733   -2.9639 N   0  0
   -2.2988    4.1958   -3.8949 H   0  0
   -3.7459    3.3317   -3.3821 H   0  0
   -3.4647    3.6428   -5.0892 H   0  0
   -1.4849    2.1750   -5.0772 H   0  0
   -2.5995   -0.0253   -4.8634 H   0  0
   -3.6492    1.1414   -5.6563 H   0  0
   -3.9286    0.7136   -3.9739 H   0  0
   -3.0712    1.5304   -1.4231 H   0  0
   -0.4756    1.8128    1.1133 H   0  0
   -1.7464    0.6166    1.0334 H   0  0
   -0.2192   -1.0672    1.1160 H   0  0
    5.5388   -1.8245    1.5567 H   0  0
    1.9689   -3.4015    2.1473 H   0  0
    5.0386   -6.1574    2.6565 H   0  0
    2.7922   -7.2850    3.0929 H   0  0
    0.7629   -6.8474    4.4934 H   0  0
    0.7923   -5.0926    4.0469 H   0  0
    0.5713   -5.7232    1.5562 H   0  0
    0.5429   -7.4781    2.0025 H   0  0
    5.3447    0.4354    1.0353 H   0  0
    5.4468    3.3774    1.5960 H   0  0
    6.0123    2.2508    0.3735 H   0  0
    6.8145    4.5578    0.0102 H   0  0
    5.8700    3.9494   -1.3553 H   0  0
    4.7375    7.3887   -0.9194 H   0  0
    5.4483    6.2543   -2.0727 H   0  0
    6.3905    6.8338   -0.6944 H   0  0
    2.8976    5.8769   -0.5273 H   0  0
    3.5739    4.7027   -1.6625 H   0  0
    2.0353    3.6125   -0.0817 H   0  0
    2.9151    4.2777    1.2788 H   0  0
    1.9349   -1.9142    1.4491 H   0  0
  1  2  1  0
  1 33  1  0
  1 34  1  0
  1 35  1  0
  2  3  1  0
  2  4  1  0
  2 36  1  0
  3 37  1  0
  3 38  1  0
  3 39  1  0
  4  5  1  0
  4 32  2  0
  5  6  2  0
  5 40  1  0
  6  7  1  0
  6 31  1  0
  7  8  1  0
  7 41  1  0
  7 42  1  0
  8  9  1  0
  8 43  1  0
  9 10  1  0
  9 23  2  0
 10 11  1  0
 10 64  1  0
 11 12  1  0
 11 21  2  0
 12 13  1  0
 12 44  1  0
 13 14  1  0
 13 17  2  0
 14 15  2  0
 14 45  1  0
 15 16  1  0
 15 18  1  0
 16 17  1  0
 16 46  1  0
 18 19  1  0
 18 20  1  0
 18 47  1  0
 19 20  1  0
 19 48  1  0
 19 49  1  0
 20 50  1  0
 20 51  1  0
 21 22  1  0
 21 52  1  0
 22 23  1  0
 22 24  1  0
 24 25  1  0
 24 30  1  0
 25 26  1  0
 25 53  1  0
 25 54  1  0
 26 27  1  0
 26 55  1  0
 26 56  1  0
 27 28  1  0
 27 29  1  0
 28 57  1  0
 28 58  1  0
 28 59  1  0
 29 30  1  0
 29 60  1  0
 29 61  1  0
 30 62  1  0
 30 63  1  0
 31 32  1  0
M  END
> <Mol2_MolInfo_Name>
3813

> <Mol2_MolInfo_Type>
SMALL

> <Mol2_MolInfo_Charge>
USER_CHARGES

> <Mol2_Substructures>
     1 UNK         1 GROUP             0       ****    0 ROOT    

> <Name>
3813

$$$$
3813
  SciTegic06232017503D

 64 68  0  0  0  0            999 V2000
   -0.8625    5.7965    3.4745 C   0  0
    0.2620    4.7479    3.5465 C   0  0  2  0  0  0
    1.5786    5.2950    2.9643 C   0  0
   -0.1503    3.4544    2.8597 C   0  0
   -0.4062    3.2217    1.5078 C   0  0
   -0.7146    1.8836    1.4141 C   0  0
   -1.0682    0.9577    0.2679 C   0  0
   -0.2177   -0.2272    0.1583 N   0  0
    1.1618   -0.1648   -0.1004 C   0  0
    1.7576   -1.3526   -0.3628 N   0  0
    3.0958   -1.3451   -0.6057 C   0  0
    3.7875   -2.5411   -0.8624 N   0  0
    3.3074   -3.8256   -0.9837 C   0  0
    1.9909   -4.3207   -1.0334 C   0  0
    2.0795   -5.6963   -1.1684 C   0  0
    3.4284   -5.9221   -1.1931 N   0  0
    4.1678   -4.8132   -1.0893 N   0  0
    1.0561   -6.8066   -1.2787 C   0  0  1  0  0  0
   -0.2529   -6.7092   -0.5344 C   0  0
   -0.2244   -6.5838   -2.0453 C   0  0
    3.8302   -0.1550   -0.5916 C   0  0
    3.1493    1.0462   -0.3322 C   0  0
    1.8101    1.0305   -0.0739 N   0  0
    3.8117    2.2768   -0.2456 N   0  0
    5.0019    2.5570   -1.0728 C   0  0
    4.6410    3.1623   -2.4480 C   0  0
    3.8382    4.4604   -2.2337 N   0  3  1  0  0  0
    3.4181    5.0776   -3.5812 C   0  0
    2.6107    4.2003   -1.3396 C   0  0
    3.0810    3.5422   -0.0252 C   0  0
   -0.6768    1.3512    2.6608 O   0  0
   -0.3123    2.3524    3.5628 N   0  0
   -1.7790    5.4250    3.9351 H   0  0
   -1.0946    6.0664    2.4434 H   0  0
   -0.5821    6.7118    3.9971 H   0  0
    0.4457    4.5570    4.6061 H   0  0
    2.3851    4.5662    3.0562 H   0  0
    1.8942    6.1992    3.4860 H   0  0
    1.4773    5.5471    1.9078 H   0  0
   -0.3537    3.9365    0.7006 H   0  0
   -2.0912    0.6063    0.4034 H   0  0
   -1.0520    1.4886   -0.6845 H   0  0
   -0.6745   -1.1173    0.0206 H   0  0
    4.7782   -2.3898   -0.9824 H   0  0
    1.0739   -3.7539   -0.9806 H   0  0
    3.8505   -6.8350   -1.2838 H   0  0
    1.4922   -7.8039   -1.3522 H   0  0
   -0.6600   -7.6150   -0.0844 H   0  0
   -0.4485   -5.8223    0.0694 H   0  0
   -0.4029   -5.6089   -2.5005 H   0  0
   -0.6094   -7.4019   -2.6546 H   0  0
    4.8958   -0.1847   -0.7594 H   0  0
    5.5981    3.2822   -0.5158 H   0  0
    5.6457    1.6882   -1.1948 H   0  0
    5.5456    3.4649   -2.9775 H   0  0
    4.0466    2.4887   -3.0685 H   0  0
    2.7762    4.3618   -4.0976 H   0  0
    4.3322    5.2764   -4.1423 H   0  0
    2.8892    6.0051   -3.3583 H   0  0
    2.1804    5.1823   -1.1379 H   0  0
    1.9032    3.5830   -1.8967 H   0  0
    2.2495    3.4057    0.6656 H   0  0
    3.7742    4.2173    0.4799 H   0  0
    4.4375    5.1101   -1.7438 H   0  0
  1  2  1  0
  1 33  1  0
  1 34  1  0
  1 35  1  0
  2  3  1  0
  2  4  1  0
  2 36  1  0
  3 37  1  0
  3 38  1  0
  3 39  1  0
  4  5  1  0
  4 32  2  0
  5  6  2  0
  5 40  1  0
  6  7  1  0
  6 31  1  0
  7  8  1  0
  7 41  1  0
  7 42  1  0
  8  9  1  0
  8 43  1  0
  9 10  2  0
  9 23  1  0
 10 11  1  0
 11 12  1  0
 11 21  2  0
 12 13  1  0
 12 44  1  0
 13 14  1  0
 13 17  2  0
 14 15  2  0
 14 45  1  0
 15 16  1  0
 15 18  1  0
 16 17  1  0
 16 46  1  0
 18 19  1  0
 18 20  1  0
 18 47  1  0
 19 20  1  0
 19 48  1  0
 19 49  1  0
 20 50  1  0
 20 51  1  0
 21 22  1  0
 21 52  1  0
 22 23  2  0
 22 24  1  0
 24 25  1  0
 24 30  1  0
 25 26  1  0
 25 53  1  0
 25 54  1  0
 26 27  1  0
 26 55  1  0
 26 56  1  0
 27 28  1  0
 27 29  1  0
 27 64  1  0
 28 57  1  0
 28 58  1  0
 28 59  1  0
 29 30  1  0
 29 60  1  0
 29 61  1  0
 30 62  1  0
 30 63  1  0
 31 32  1  0
M  CHG  1  27   1
M  END
> <Mol2_MolInfo_Name>
3813

> <Mol2_MolInfo_Type>
SMALL

> <Mol2_MolInfo_Charge>
USER_CHARGES

> <Mol2_Substructures>
     1 UNK         1 GROUP             0       ****    0 ROOT    

> <Name>
3813

$$$$
4271
  SciTegic06232017503D

 36 37  0  0  0  0            999 V2000
   -0.5921    1.7402   -0.5767 C   0  0
    0.0067    0.3593   -0.2612 C   0  0  2  0  0  0
    1.4718    0.4471   -0.1981 N   0  0
    2.3177   -0.5385    0.1714 C   0  0
    1.9081   -1.6574    0.4939 O   0  0
    3.7352   -0.1857    0.1500 C   0  0
    4.6619   -1.1181    0.4996 C   0  0
    6.1405   -1.0042    0.5505 C   0  0
    6.8879   -2.0720    1.0642 C   0  0
    8.2790   -1.9680    1.1133 C   0  0
    8.8974   -0.8066    0.6501 C   0  0
    8.0994    0.2223    0.1482 C   0  0
    8.9295    1.8112   -0.4897 Br  0  0
    6.7460    0.1285    0.0984 N   0  0
    4.0861    1.1502   -0.2424 C   0  0
    4.3352    2.2361   -0.5592 N   0  0
   -0.5407   -0.6999   -1.2275 C   0  0
   -1.6499   -1.4649   -0.8519 C   0  0
   -2.1513   -2.4399   -1.7101 C   0  0
   -1.5419   -2.6521   -2.9445 C   0  0
   -0.4347   -1.8991   -3.3278 C   0  0
    0.0672   -0.9246   -2.4694 C   0  0
   -1.6814    1.7186   -0.5285 H   0  0
   -0.3101    2.0795   -1.5745 H   0  0
   -0.2518    2.4928    0.1358 H   0  0
   -0.3207    0.0995    0.7485 H   0  0
    1.8621    1.3622   -0.3700 H   0  0
    4.3091   -2.0991    0.7903 H   0  0
    6.4045   -2.9698    1.4222 H   0  0
    8.8725   -2.7799    1.5072 H   0  0
    9.9726   -0.7080    0.6796 H   0  0
   -2.1255   -1.3058    0.1051 H   0  0
   -3.0084   -3.0295   -1.4197 H   0  0
   -1.9310   -3.4085   -3.6101 H   0  0
    0.0330   -2.0706   -4.2861 H   0  0
    0.9260   -0.3436   -2.7728 H   0  0
  1  2  1  0
  1 23  1  0
  1 24  1  0
  1 25  1  0
  2  3  1  0
  2 17  1  0
  2 26  1  0
  3  4  1  0
  3 27  1  0
  4  5  2  0
  4  6  1  0
  6  7  2  0
  6 15  1  0
  7  8  1  0
  7 28  1  0
  8  9  2  0
  8 14  1  0
  9 10  1  0
  9 29  1  0
 10 11  2  0
 10 30  1  0
 11 12  1  0
 11 31  1  0
 12 13  1  0
 12 14  2  0
 15 16  3  0
 17 18  2  0
 17 22  1  0
 18 19  1  0
 18 32  1  0
 19 20  2  0
 19 33  1  0
 20 21  1  0
 20 34  1  0
 21 22  2  0
 21 35  1  0
 22 36  1  0
M  END
> <Mol2_MolInfo_Name>
4271

> <Mol2_MolInfo_Type>
SMALL

> <Mol2_MolInfo_Charge>
USER_CHARGES

> <Mol2_Substructures>
     1 UNK         1 GROUP             0       ****    0 ROOT    

> <Name>
4271

$$$$
4448
  SciTegic06232017503D

 18 19  0  0  0  0            999 V2000
    2.8248    4.1590   -0.0031 Br  0  0
    1.1888    3.1865    0.0071 C   0  0
    1.2061    1.7929   -0.0002 C   0  0
    0.0085    1.0782    0.0073 C   0  0
   -1.2227    1.7484    0.0222 C   0  0
   -2.5158    0.9811    0.0303 C   0  0
   -2.5955   -0.2497    0.0247 O   0  0
   -3.8529    1.8204    0.0471 C   0  0
   -4.9171    1.2010    0.0538 O   0  0
   -3.7208    3.2801    0.0533 C   0  0
   -2.5162    3.8884    0.0452 C   0  0
   -1.2311    3.1594    0.0295 C   0  0
   -0.0269    3.8686    0.0220 C   0  0
    2.1476    1.2636   -0.0117 H   0  0
    0.0484   -0.0021    0.0014 H   0  0
   -4.6075    3.8972    0.0648 H   0  0
   -2.5009    4.9691    0.0507 H   0  0
   -0.0301    4.9491    0.0275 H   0  0
  1  2  1  0
  2  3  2  0
  2 13  1  0
  3  4  1  0
  3 14  1  0
  4  5  2  0
  4 15  1  0
  5  6  1  0
  5 12  1  0
  6  7  2  0
  6  8  1  0
  8  9  2  0
  8 10  1  0
 10 11  2  0
 10 16  1  0
 11 12  1  0
 11 17  1  0
 12 13  2  0
 13 18  1  0
M  END
> <Mol2_MolInfo_Name>
4448

> <Mol2_MolInfo_Type>
SMALL

> <Mol2_MolInfo_Charge>
USER_CHARGES

> <Mol2_Substructures>
     1 UNK         1 GROUP             0       ****    0 ROOT    

> <Name>
4448

$$$$
5133
  SciTegic06232017503D

 80 84  0  0  0  0            999 V2000
   -3.1039    2.6638    3.8237 O   0  5
   -4.0580    2.8359    3.0304 C   0  0
   -5.2481    2.9955    3.3823 O   0  0
   -3.7820    2.8482    1.5051 C   0  0  1  0  0  0
   -4.1704    4.2135    0.8866 C   0  0
   -3.9172    4.2790   -0.6143 C   0  0
   -2.8028    4.9598   -1.1137 C   0  0
   -2.5635    5.0036   -2.4869 C   0  0
   -3.4353    4.3673   -3.3723 C   0  0
   -3.1790    4.4206   -4.7191 O   0  0
   -4.5545    3.6845   -2.8777 C   0  0
   -5.4271    3.0503   -3.7263 O   0  0
   -4.7911    3.6434   -1.5018 C   0  0
   -2.3946    2.5828    1.2423 O   0  0
   -1.9250    1.3268    1.0299 C   0  0
   -2.6200    0.3075    1.0528 O   0  0
   -0.4904    1.3264    0.7663 C   0  0
    0.2095    0.1931    0.5418 C   0  0
    1.6614    0.0852    0.2726 C   0  0
    2.5120    1.2049    0.3106 C   0  0
    3.8845    1.0775    0.0764 C   0  0
    4.4358   -0.1752   -0.1915 C   0  0
    5.7823   -0.3156   -0.4058 O   0  0
    3.5909   -1.2818   -0.2287 C   0  0
    4.0130   -2.5669   -0.4612 O   0  0
    2.8867   -3.4431   -0.3548 C   0  0  2  0  0  0
    1.6344   -2.5484   -0.1700 C   0  0  2  0  0  0
    0.6791   -2.6915   -1.3750 C   0  0
    0.5339   -1.8082   -2.2242 O   0  0
    0.0488   -3.8896   -1.3660 O   0  0
   -0.8677   -4.2784   -2.3980 C   0  0  2  0  0  0
   -2.2680   -3.6177   -2.2158 C   0  0
   -2.9275   -3.8583   -0.8597 C   0  0
   -2.6847   -2.9811    0.2002 C   0  0
   -3.2836   -3.1901    1.4416 C   0  0
   -4.1335   -4.2804    1.6349 C   0  0
   -4.7122   -4.4644    2.8655 O   0  0
   -4.3832   -5.1644    0.5759 C   0  0
   -5.2131   -6.2456    0.7354 O   0  0
   -3.7815   -4.9487   -0.6661 C   0  0
   -0.9472   -5.8269   -2.4268 C   0  0
   -1.7985   -6.3336   -3.1919 O   0  0
   -0.1540   -6.4935   -1.7222 O   0  5
    2.2255   -1.1683   -0.0230 C   0  0
    3.0649   -4.4804    0.7508 C   0  0
    2.6669   -5.8048    0.5420 C   0  0
    2.8200   -6.7543    1.5520 C   0  0
    3.3718   -6.3894    2.7811 C   0  0
    3.5181   -7.3404    3.7596 O   0  0
    3.7678   -5.0636    2.9999 C   0  0
    4.3092   -4.6765    4.2000 O   0  0
    3.6119   -4.1158    1.9863 C   0  0
   -4.4072    2.0785    1.0482 H   0  0
   -5.2273    4.4255    1.0588 H   0  0
   -3.6296    5.0243    1.3795 H   0  0
   -2.1170    5.4510   -0.4386 H   0  0
   -1.6977    5.5307   -2.8609 H   0  0
   -3.8288    3.9379   -5.2356 H   0  0
   -6.1493    2.6187   -3.2641 H   0  0
   -5.6510    3.1128   -1.1184 H   0  0
   -0.0096    2.2933    0.7593 H   0  0
   -0.3208   -0.7478    0.5631 H   0  0
    2.1260    2.1886    0.5290 H   0  0
    4.5157    1.9533    0.1139 H   0  0
    6.2589    0.5159   -0.3552 H   0  0
    2.8729   -3.9923   -1.3002 H   0  0
    1.0764   -2.8318    0.7233 H   0  0
   -0.4616   -3.9800   -3.3662 H   0  0
   -2.1797   -2.5405   -2.3654 H   0  0
   -2.9496   -3.9365   -3.0065 H   0  0
   -2.0304   -2.1346    0.0607 H   0  0
   -3.0854   -2.5006    2.2496 H   0  0
   -4.4616   -3.7882    3.4989 H   0  0
   -5.2863   -6.7782   -0.0597 H   0  0
   -3.9733   -5.6313   -1.4819 H   0  0
    2.2344   -6.1024   -0.4024 H   0  0
    2.5078   -7.7737    1.3766 H   0  0
    3.9245   -6.9897    4.5557 H   0  0
    4.5490   -3.7472    4.2192 H   0  0
    3.9153   -3.0929    2.1584 H   0  0
  1  2  1  0
  2  3  2  0
  2  4  1  0
  4  5  1  0
  4 14  1  0
  4 53  1  0
  5  6  1  0
  5 54  1  0
  5 55  1  0
  6  7  2  0
  6 13  1  0
  7  8  1  0
  7 56  1  0
  8  9  2  0
  8 57  1  0
  9 10  1  0
  9 11  1  0
 10 58  1  0
 11 12  1  0
 11 13  2  0
 12 59  1  0
 13 60  1  0
 14 15  1  0
 15 16  2  0
 15 17  1  0
 17 18  2  0
 17 61  1  0
 18 19  1  0
 18 62  1  0
 19 20  2  0
 19 44  1  0
 20 21  1  0
 20 63  1  0
 21 22  2  0
 21 64  1  0
 22 23  1  0
 22 24  1  0
 23 65  1  0
 24 25  1  0
 24 44  2  0
 25 26  1  0
 26 27  1  0
 26 45  1  0
 26 66  1  0
 27 28  1  0
 27 44  1  0
 27 67  1  0
 28 29  2  0
 28 30  1  0
 30 31  1  0
 31 32  1  0
 31 41  1  0
 31 68  1  0
 32 33  1  0
 32 69  1  0
 32 70  1  0
 33 34  2  0
 33 40  1  0
 34 35  1  0
 34 71  1  0
 35 36  2  0
 35 72  1  0
 36 37  1  0
 36 38  1  0
 37 73  1  0
 38 39  1  0
 38 40  2  0
 39 74  1  0
 40 75  1  0
 41 42  2  0
 41 43  1  0
 45 46  2  0
 45 52  1  0
 46 47  1  0
 46 76  1  0
 47 48  2  0
 47 77  1  0
 48 49  1  0
 48 50  1  0
 49 78  1  0
 50 51  1  0
 50 52  2  0
 51 79  1  0
 52 80  1  0
M  CHG  2   1  -1  43  -1
M  END
> <Mol2_MolInfo_Name>
5133

> <Mol2_MolInfo_Type>
SMALL

> <Mol2_MolInfo_Charge>
USER_CHARGES

> <Mol2_Substructures>
     1 UNK         1 GROUP             0       ****    0 ROOT    

> <Name>
5133

$$$$
5185
  SciTegic06232017503D

 23 23  0  0  0  0            999 V2000
    0.5188    0.4649   -2.1225 C   0  0
    0.6611   -0.4137   -0.8685 C   0  0
   -0.1092    0.1145    0.3692 C   0  0  1  0  0  0
   -0.8742   -1.0153    1.0799 C   0  0
    0.9042    1.0458    1.5650 S   0  0
    1.6758    2.6579    0.5779 S   0  0
    3.2605    2.1169    0.0528 C   0  0
    3.5424    1.7029   -1.1622 N   0  0
    4.8276    1.3873   -1.1388 C   0  0
    5.3933    1.6024    0.1082 C   0  0
    4.3620    2.0781    0.8683 N   0  0
    1.1164    0.0684   -2.9436 H   0  0
    0.8438    1.4887   -1.9448 H   0  0
   -0.5178    0.5033   -2.4586 H   0  0
    0.3135   -1.4133   -1.1343 H   0  0
    1.7163   -0.5419   -0.6242 H   0  0
   -0.8648    0.8229    0.0255 H   0  0
   -1.5542   -1.5248    0.3962 H   0  0
   -1.4778   -0.6282    1.9017 H   0  0
   -0.1923   -1.7626    1.4876 H   0  0
    5.3365    1.0102   -2.0138 H   0  0
    6.3867    1.4687    0.5105 H   0  0
    4.4003    2.3449    1.8418 H   0  0
  1  2  1  0
  1 12  1  0
  1 13  1  0
  1 14  1  0
  2  3  1  0
  2 15  1  0
  2 16  1  0
  3  4  1  0
  3  5  1  0
  3 17  1  0
  4 18  1  0
  4 19  1  0
  4 20  1  0
  5  6  1  0
  6  7  1  0
  7  8  2  0
  7 11  1  0
  8  9  1  0
  9 10  2  0
  9 21  1  0
 10 11  1  0
 10 22  1  0
 11 23  1  0
M  END
> <Mol2_MolInfo_Name>
5185

> <Mol2_MolInfo_Type>
SMALL

> <Mol2_MolInfo_Charge>
USER_CHARGES

> <Mol2_Substructures>
     1 UNK         1 GROUP             0       ****    0 ROOT    

> <Name>
5185

$$$$
5185
  SciTegic06232017503D

 23 23  0  0  0  0            999 V2000
   -0.4617   -0.5325    2.7050 C   0  0
   -0.3955   -0.8446    1.2007 C   0  0
    0.1331    0.3195    0.3329 C   0  0  2  0  0  0
   -0.1250    0.0525   -1.1600 C   0  0
    1.8707    0.7320    0.6934 S   0  0
    2.2235    2.5364   -0.1978 S   0  0
    2.8249    2.1260   -1.7947 C   0  0
    4.0068    1.5995   -2.0276 N   0  0
    4.0676    1.4351   -3.3397 C   0  0
    2.9101    1.8617   -3.9719 C   0  0
    2.1152    2.3076   -2.9536 N   0  0
   -0.8713   -1.3780    3.2581 H   0  0
   -1.0984    0.3304    2.9021 H   0  0
    0.5255   -0.3213    3.1164 H   0  0
    0.2274   -1.7266    1.0451 H   0  0
   -1.3951   -1.1272    0.8672 H   0  0
   -0.4417    1.2073    0.6013 H   0  0
   -1.1679   -0.2081   -1.3440 H   0  0
    0.4929   -0.7657   -1.5315 H   0  0
    0.0860    0.9344   -1.7620 H   0  0
    4.9387    1.0134   -3.8196 H   0  0
    2.5895    1.8897   -5.0030 H   0  0
    1.1855    2.6941   -3.0366 H   0  0
  1  2  1  0
  1 12  1  0
  1 13  1  0
  1 14  1  0
  2  3  1  0
  2 15  1  0
  2 16  1  0
  3  4  1  0
  3  5  1  0
  3 17  1  0
  4 18  1  0
  4 19  1  0
  4 20  1  0
  5  6  1  0
  6  7  1  0
  7  8  2  0
  7 11  1  0
  8  9  1  0
  9 10  2  0
  9 21  1  0
 10 11  1  0
 10 22  1  0
 11 23  1  0
M  END
> <Mol2_MolInfo_Name>
5185

> <Mol2_MolInfo_Type>
SMALL

> <Mol2_MolInfo_Charge>
USER_CHARGES

> <Mol2_Substructures>
     1 UNK         1 GROUP             0       ****    0 ROOT    

> <Name>
5185

$$$$
5207
  SciTegic06232017503D

 35 36  0  0  0  0            999 V2000
   -0.7482    1.3268    0.5804 C   0  0
    0.0861    0.0641    0.2528 C   0  0  2  0  0  0
    1.5732    0.4208   -0.0339 C   0  0
    2.2617    1.1026    1.0712 N   0  0
    3.5285    1.6918    0.6001 C   0  0
    4.2700    2.4180    1.7489 C   0  0
    5.0505    3.3484    1.5597 O   0  0
    4.0237    1.9422    2.9862 N   0  0
    3.1552    0.9998    3.4058 C   0  0
    3.0255    0.7320    4.5985 O   0  0
    2.3670    0.2718    2.2879 C   0  0
   -0.4858   -0.7039   -0.9868 N   0  3  2  0  0  0
   -2.0357   -0.7637   -1.0815 C   0  0
   -2.6206   -1.7383   -0.0274 C   0  0
   -3.7494   -1.4810    0.3849 O   0  0
   -1.9074   -2.7864    0.3374 N   0  0
   -0.6822   -3.0900   -0.0473 C   0  0
   -0.0619   -4.0854    0.3200 O   0  0
    0.0483   -2.1632   -1.0573 C   0  0
   -0.3000    1.8979    1.3936 H   0  0
   -1.7548    1.0770    0.9156 H   0  0
   -0.8266    1.9924   -0.2799 H   0  0
   -0.0005   -0.6417    1.0790 H   0  0
    2.1543   -0.4636   -0.2919 H   0  0
    1.5954    1.0650   -0.9149 H   0  0
    4.1831    0.9305    0.1718 H   0  0
    3.3313    2.4222   -0.1867 H   0  0
    4.5341    2.4034    3.7248 H   0  0
    1.3780    0.0465    2.6873 H   0  0
    2.8486   -0.6833    2.0711 H   0  0
   -2.4567    0.2392   -1.0263 H   0  0
   -2.2458   -1.1544   -2.0784 H   0  0
   -0.1712   -2.5014   -2.0710 H   0  0
    1.1277   -2.1761   -0.9192 H   0  0
   -0.1536   -0.2055   -1.8002 H   0  0
  1  2  1  0
  1 20  1  0
  1 21  1  0
  1 22  1  0
  2  3  1  0
  2 12  1  0
  2 23  1  0
  3  4  1  0
  3 24  1  0
  3 25  1  0
  4  5  1  0
  4 11  1  0
  5  6  1  0
  5 26  1  0
  5 27  1  0
  6  7  2  0
  6  8  1  0
  8  9  1  0
  8 28  1  0
  9 10  2  0
  9 11  1  0
 11 29  1  0
 11 30  1  0
 12 13  1  0
 12 19  1  0
 12 35  1  0
 13 14  1  0
 13 31  1  0
 13 32  1  0
 14 15  2  0
 14 16  1  0
 16 17  1  0
 17 18  2  0
 17 19  1  0
 19 33  1  0
 19 34  1  0
M  CHG  1  12   1
M  END
> <Mol2_MolInfo_Name>
5207

> <Mol2_MolInfo_Type>
SMALL

> <Mol2_MolInfo_Charge>
USER_CHARGES

> <Mol2_Substructures>
     1 UNK         1 GROUP             0       ****    0 ROOT    

> <Name>
5207

$$$$
5207
  SciTegic06232017503D

 35 36  0  0  0  0            999 V2000
   -0.7491    1.3274   -0.5806 C   0  0
    0.0855    0.0649   -0.2531 C   0  0  1  0  0  0
    1.5723    0.4226    0.0341 C   0  0
    2.2615    1.1031   -1.0713 N   0  0
    3.5282    1.6924   -0.5997 C   0  0
    4.2716    2.4164   -1.7488 C   0  0
    5.0528    3.3463   -1.5597 O   0  0
    4.0262    1.9393   -2.9858 N   0  0
    3.1575    0.9970   -3.4050 C   0  0
    3.0288    0.7281   -4.5974 O   0  0
    2.3677    0.2708   -2.2870 C   0  0
   -0.4855   -0.7041    0.9862 N   0  3  2  0  0  0
    0.0480   -2.1638    1.0541 C   0  0
   -0.6853   -3.0895    0.0453 C   0  0
   -0.0660   -4.0843   -0.3250 O   0  0
   -1.9107   -2.7846   -0.3374 N   0  0
   -2.6222   -1.7357    0.0285 C   0  0
   -3.7524   -1.4784   -0.3802 O   0  0
   -2.0353   -0.7627    1.0829 C   0  0
   -0.3012    1.8987   -1.3939 H   0  0
   -0.8278    1.9928    0.2798 H   0  0
   -1.7556    1.0772   -0.9154 H   0  0
   -0.0006   -0.6408   -1.0793 H   0  0
    1.5934    1.0681    0.9142 H   0  0
    2.1535   -0.4612    0.2941 H   0  0
    3.3308    2.4238    0.1861 H   0  0
    4.1819    0.9311   -0.1697 H   0  0
    4.5377    2.3994   -3.7244 H   0  0
    2.8485   -0.6844   -2.0684 H   0  0
    1.3791    0.0455   -2.6872 H   0  0
    1.1270   -2.1768    0.9132 H   0  0
   -0.1688   -2.5028    2.0681 H   0  0
   -2.2446   -1.1540    2.0797 H   0  0
   -2.4553    0.2409    1.0290 H   0  0
   -0.1518   -0.2070    1.7998 H   0  0
  1  2  1  0
  1 20  1  0
  1 21  1  0
  1 22  1  0
  2  3  1  0
  2 12  1  0
  2 23  1  0
  3  4  1  0
  3 24  1  0
  3 25  1  0
  4  5  1  0
  4 11  1  0
  5  6  1  0
  5 26  1  0
  5 27  1  0
  6  7  2  0
  6  8  1  0
  8  9  1  0
  8 28  1  0
  9 10  2  0
  9 11  1  0
 11 29  1  0
 11 30  1  0
 12 13  1  0
 12 19  1  0
 12 35  1  0
 13 14  1  0
 13 31  1  0
 13 32  1  0
 14 15  2  0
 14 16  1  0
 16 17  1  0
 17 18  2  0
 17 19  1  0
 19 33  1  0
 19 34  1  0
M  CHG  1  12   1
M  END
> <Mol2_MolInfo_Name>
5207

> <Mol2_MolInfo_Type>
SMALL

> <Mol2_MolInfo_Charge>
USER_CHARGES

> <Mol2_Substructures>
     1 UNK         1 GROUP             0       ****    0 ROOT    

> <Name>
5207

$$$$
5207
  SciTegic06232017503D

 36 37  0  0  0  0            999 V2000
   -0.7744    1.0651    0.5687 C   0  0
    0.1343   -0.1045    0.1119 C   0  0  2  0  0  0
    1.6113    0.3512   -0.0917 C   0  0
    2.2075    1.0376    1.0629 N   0  0
    3.4566    1.7170    0.6721 C   0  0
    4.1010    2.4444    1.8779 C   0  0
    4.8351    3.4226    1.7558 O   0  0
    3.8247    1.9148    3.0868 N   0  0
    2.9885    0.9157    3.4351 C   0  0
    2.8068    0.6102    4.6116 O   0  0
    2.3063    0.1750    2.2576 C   0  0
   -0.4407   -0.7315   -1.2063 N   0  3  2  0  0  0
   -1.8579   -1.3457   -1.0257 C   0  0
   -1.8144   -2.6801   -0.2428 C   0  0
   -2.7595   -3.0965    0.4219 O   0  0
   -0.6525   -3.3667   -0.3446 N   0  0
    0.4887   -3.1123   -1.0259 C   0  0
    1.4547   -3.8699   -0.9891 O   0  0
    0.4688   -1.8098   -1.8585 C   0  0
   -0.3564    1.5858    1.4304 H   0  0
   -1.7600    0.7318    0.8891 H   0  0
   -0.9053    1.8043   -0.2225 H   0  0
    0.0958   -0.9108    0.8444 H   0  0
    2.2535   -0.4990   -0.3218 H   0  0
    1.6445    1.0169   -0.9563 H   0  0
    4.1750    1.0114    0.2503 H   0  0
    3.2513    2.4620   -0.0987 H   0  0
    4.2718    2.3804    3.8629 H   0  0
    1.3153   -0.1273    2.5966 H   0  0
    2.8606   -0.7393    2.0379 H   0  0
   -2.5210   -0.6211   -0.5590 H   0  0
   -2.2318   -1.5343   -2.0331 H   0  0
   -0.6366   -4.2298    0.1799 H   0  0
    0.0323   -2.0172   -2.8368 H   0  0
    1.4650   -1.4062   -2.0275 H   0  0
   -0.5217    0.0321   -1.8634 H   0  0
  1  2  1  0
  1 20  1  0
  1 21  1  0
  1 22  1  0
  2  3  1  0
  2 12  1  0
  2 23  1  0
  3  4  1  0
  3 24  1  0
  3 25  1  0
  4  5  1  0
  4 11  1  0
  5  6  1  0
  5 26  1  0
  5 27  1  0
  6  7  2  0
  6  8  1  0
  8  9  1  0
  8 28  1  0
  9 10  2  0
  9 11  1  0
 11 29  1  0
 11 30  1  0
 12 13  1  0
 12 19  1  0
 12 36  1  0
 13 14  1  0
 13 31  1  0
 13 32  1  0
 14 15  2  0
 14 16  1  0
 16 17  1  0
 16 33  1  0
 17 18  2  0
 17 19  1  0
 19 34  1  0
 19 35  1  0
M  CHG  1  12   1
M  END
> <Mol2_MolInfo_Name>
5207

> <Mol2_MolInfo_Type>
SMALL

> <Mol2_MolInfo_Charge>
USER_CHARGES

> <Mol2_Substructures>
     1 UNK         1 GROUP             0       ****    0 ROOT    

> <Name>
5207

$$$$
5207
  SciTegic06232017503D

 36 37  0  0  0  0            999 V2000
   -0.7651    1.2096   -0.4510 C   0  0
    0.0776   -0.0432   -0.1064 C   0  0  1  0  0  0
    1.5858    0.3065    0.0753 C   0  0
    2.1957    1.0058   -1.0643 N   0  0
    3.5005    1.5761   -0.6807 C   0  0
    4.1601    2.3183   -1.8694 C   0  0
    4.9650    3.2355   -1.7228 O   0  0
    3.8118    1.8724   -3.0934 N   0  0
    2.9013    0.9487   -3.4627 C   0  0
    2.6674    0.7136   -4.6460 O   0  0
    2.2022    0.1985   -2.3012 C   0  0
   -0.5218   -0.7099    1.1799 N   0  3  1  0  0  0
   -1.8724   -1.4261    0.8946 C   0  0
   -1.6751   -2.7848    0.1782 C   0  0
   -2.5425   -3.3037   -0.5196 O   0  0
   -0.4703   -3.3698    0.3701 N   0  0
    0.5994   -3.0094    1.1150 C   0  0
    1.6255   -3.6830    1.1554 O   0  0
    0.4162   -1.7029    1.9192 C   0  0
   -0.3738    1.7233   -1.3294 H   0  0
   -0.7634    1.9281    0.3696 H   0  0
   -1.8018    0.9748   -0.6850 H   0  0
   -0.0302   -0.7975   -0.8861 H   0  0
    1.6838    0.9306    0.9657 H   0  0
    2.1727   -0.5953    0.2540 H   0  0
    3.3712    2.2930    0.1322 H   0  0
    4.1787    0.8012   -0.3180 H   0  0
    4.2674    2.3457   -3.8600 H   0  0
    2.6977   -0.7609   -2.1415 H   0  0
    1.1843   -0.0190   -2.6249 H   0  0
   -2.3314   -1.5978    1.8693 H   0  0
   -2.5239   -0.7673    0.3245 H   0  0
   -0.3526   -4.2420   -0.1253 H   0  0
    1.3619   -1.2149    2.1503 H   0  0
   -0.0757   -1.9293    2.8664 H   0  0
   -0.7091    0.0513    1.8179 H   0  0
  1  2  1  0
  1 20  1  0
  1 21  1  0
  1 22  1  0
  2  3  1  0
  2 12  1  0
  2 23  1  0
  3  4  1  0
  3 24  1  0
  3 25  1  0
  4  5  1  0
  4 11  1  0
  5  6  1  0
  5 26  1  0
  5 27  1  0
  6  7  2  0
  6  8  1  0
  8  9  1  0
  8 28  1  0
  9 10  2  0
  9 11  1  0
 11 29  1  0
 11 30  1  0
 12 13  1  0
 12 19  1  0
 12 36  1  0
 13 14  1  0
 13 31  1  0
 13 32  1  0
 14 15  2  0
 14 16  1  0
 16 17  1  0
 16 33  1  0
 17 18  2  0
 17 19  1  0
 19 34  1  0
 19 35  1  0
M  CHG  1  12   1
M  END
> <Mol2_MolInfo_Name>
5207

> <Mol2_MolInfo_Type>
SMALL

> <Mol2_MolInfo_Charge>
USER_CHARGES

> <Mol2_Substructures>
     1 UNK         1 GROUP             0       ****    0 ROOT    

> <Name>
5207

$$$$
5207
  SciTegic06232017503D

 35 36  0  0  0  0            999 V2000
   -0.5754    1.3555   -0.0264 C   0  0
   -0.1498   -0.1371   -0.1116 C   0  0  2  0  0  0
    1.4056   -0.2651   -0.0364 C   0  0
    2.0179    0.4789    1.1854 N   0  3  2  0  0  0
    3.5572    0.5922    1.0529 C   0  0
    4.2611   -0.7439    1.4083 C   0  0
    5.3690   -0.9201    0.9068 O   0  0
    3.6691   -1.5902    2.2295 N   0  0
    2.4799   -1.4692    2.7877 C   0  0
    1.9727   -2.3026    3.5348 O   0  0
    1.6492   -0.1840    2.5371 C   0  0
   -0.7133   -0.8010   -1.3194 N   0  0
   -2.1894   -0.6826   -1.4006 C   0  0
   -2.7755   -1.3964   -2.6428 C   0  0
   -3.8579   -1.0937   -3.1408 O   0  0
   -2.0348   -2.4052   -3.1356 N   0  0
   -0.8219   -2.8588   -2.7714 C   0  0
   -0.2704   -3.7736   -3.3802 O   0  0
   -0.1997   -2.1764   -1.5291 C   0  0
   -0.1164    1.8669    0.8188 H   0  0
   -1.6471    1.4783    0.1239 H   0  0
   -0.2929    1.9021   -0.9272 H   0  0
   -0.5767   -0.6541    0.7485 H   0  0
    1.7543   -1.2932    0.0576 H   0  0
    1.8707    0.1894   -0.9129 H   0  0
    3.7992    0.9436    0.0486 H   0  0
    3.8523    1.3546    1.7751 H   0  0
    1.9035    0.5570    3.2959 H   0  0
    0.5750   -0.3625    2.5719 H   0  0
   -2.6655   -1.0772   -0.5012 H   0  0
   -2.4955    0.3582   -1.4962 H   0  0
   -2.4377   -2.8722   -3.9348 H   0  0
    0.8738   -2.1671   -1.7155 H   0  0
   -0.3703   -2.7987   -0.6489 H   0  0
    1.6324    1.4127    1.1696 H   0  0
  1  2  1  0
  1 20  1  0
  1 21  1  0
  1 22  1  0
  2  3  1  0
  2 12  1  0
  2 23  1  0
  3  4  1  0
  3 24  1  0
  3 25  1  0
  4  5  1  0
  4 11  1  0
  4 35  1  0
  5  6  1  0
  5 26  1  0
  5 27  1  0
  6  7  2  0
  6  8  1  0
  8  9  1  0
  9 10  2  0
  9 11  1  0
 11 28  1  0
 11 29  1  0
 12 13  1  0
 12 19  1  0
 13 14  1  0
 13 30  1  0
 13 31  1  0
 14 15  2  0
 14 16  1  0
 16 17  1  0
 16 32  1  0
 17 18  2  0
 17 19  1  0
 19 33  1  0
 19 34  1  0
M  CHG  1   4   1
M  END
> <Mol2_MolInfo_Name>
5207

> <Mol2_MolInfo_Type>
SMALL

> <Mol2_MolInfo_Charge>
USER_CHARGES

> <Mol2_Substructures>
     1 UNK         1 GROUP             0       ****    0 ROOT    

> <Name>
5207

$$$$
5207
  SciTegic06232017503D

 35 36  0  0  0  0            999 V2000
   -0.5840    1.3496    0.0046 C   0  0
   -0.1362   -0.1354    0.1093 C   0  0  1  0  0  0
    1.4221   -0.2365    0.0631 C   0  0
    2.0378    0.4926   -1.1656 N   0  3  2  0  0  0
    1.7260   -0.2242   -2.5041 C   0  0
    2.6122   -1.4820   -2.6994 C   0  0
    2.1568   -2.3539   -3.4358 O   0  0
    3.7894   -1.5433   -2.1071 N   0  0
    4.3276   -0.6535   -1.2952 C   0  0
    5.4271   -0.7744   -0.7600 O   0  0
    3.5682    0.6666   -1.0007 C   0  0
   -0.7096   -0.8016    1.3115 N   0  0
   -2.1870   -0.6911    1.3769 C   0  0
   -2.7820   -1.4087    2.6123 C   0  0
   -3.8690   -1.1089    3.1019 O   0  0
   -2.0433   -2.4172    3.1088 N   0  0
   -0.8255   -2.8658    2.7550 C   0  0
   -0.2783   -3.7827    3.3643 O   0  0
   -0.1910   -2.1747    1.5238 C   0  0
   -0.1159    1.8621   -0.8350 H   0  0
   -0.3284    1.9071    0.9067 H   0  0
   -1.6544    1.4534   -0.1678 H   0  0
   -0.5397   -0.6651   -0.7543 H   0  0
    1.8634    0.2444    0.9378 H   0  0
    1.7938   -1.2585   -0.0046 H   0  0
    0.6609   -0.4473   -2.5553 H   0  0
    1.9676    0.5038   -3.2795 H   0  0
    3.8540    1.4157   -1.7404 H   0  0
    3.7725    1.0588   -0.0032 H   0  0
   -2.4990    0.3483    1.4704 H   0  0
   -2.6511   -1.0875    0.4721 H   0  0
   -2.4527   -2.8886    3.9021 H   0  0
   -0.3461   -2.7947    0.6391 H   0  0
    0.8797   -2.1601    1.7248 H   0  0
    1.6196    1.4119   -1.1881 H   0  0
  1  2  1  0
  1 20  1  0
  1 21  1  0
  1 22  1  0
  2  3  1  0
  2 12  1  0
  2 23  1  0
  3  4  1  0
  3 24  1  0
  3 25  1  0
  4  5  1  0
  4 11  1  0
  4 35  1  0
  5  6  1  0
  5 26  1  0
  5 27  1  0
  6  7  2  0
  6  8  1  0
  8  9  1  0
  9 10  2  0
  9 11  1  0
 11 28  1  0
 11 29  1  0
 12 13  1  0
 12 19  1  0
 13 14  1  0
 13 30  1  0
 13 31  1  0
 14 15  2  0
 14 16  1  0
 16 17  1  0
 16 32  1  0
 17 18  2  0
 17 19  1  0
 19 33  1  0
 19 34  1  0
M  CHG  1   4   1
M  END
> <Mol2_MolInfo_Name>
5207

> <Mol2_MolInfo_Type>
SMALL

> <Mol2_MolInfo_Charge>
USER_CHARGES

> <Mol2_Substructures>
     1 UNK         1 GROUP             0       ****    0 ROOT    

> <Name>
5207

$$$$
5207
  SciTegic06232017503D

 36 37  0  0  0  0            999 V2000
   -0.6256    1.3421    0.0836 C   0  0
   -0.0976   -0.1177   -0.0057 C   0  0  2  0  0  0
    1.4645   -0.1417    0.0519 C   0  0
    2.0542    0.6830    1.2331 N   0  3  2  0  0  0
    3.5903    0.8266    1.0960 C   0  0
    4.3384   -0.4622    1.5108 C   0  0
    5.4597   -0.7441    1.0965 O   0  0
    3.6762   -1.2677    2.3724 N   0  0
    2.4684   -1.1601    2.9711 C   0  0
    2.0501   -2.0192    3.7427 O   0  0
    1.6692    0.1160    2.6229 C   0  0
   -0.6127   -0.8270   -1.2091 N   0  0
   -2.0862   -0.7365   -1.3558 C   0  0
   -2.6096   -1.5029   -2.5951 C   0  0
   -3.6773   -1.2387   -3.1440 O   0  0
   -1.8302   -2.5111   -3.0260 N   0  0
   -0.6255   -2.9291   -2.5980 C   0  0
   -0.0274   -3.8459   -3.1573 O   0  0
   -0.0733   -2.2015   -1.3486 C   0  0
   -0.2080    1.8817    0.9327 H   0  0
   -1.7043    1.3861    0.2303 H   0  0
   -0.3815    1.9111   -0.8145 H   0  0
   -0.4836   -0.6616    0.8574 H   0  0
    1.8786   -1.1419    0.1753 H   0  0
    1.8851    0.3117   -0.8475 H   0  0
    3.8161    1.1156    0.0686 H   0  0
    3.8748    1.6419    1.7624 H   0  0
    4.1845   -2.1035    2.6242 H   0  0
    1.9117    0.9009    3.3407 H   0  0
    0.5942   -0.0566    2.6490 H   0  0
   -2.5936   -1.1058   -0.4627 H   0  0
   -2.4021    0.2957   -1.5026 H   0  0
   -2.1898   -3.0090   -3.8273 H   0  0
    1.0076   -2.1895   -1.4821 H   0  0
   -0.2837   -2.7982   -0.4591 H   0  0
    1.6550    1.6077    1.1484 H   0  0
  1  2  1  0
  1 20  1  0
  1 21  1  0
  1 22  1  0
  2  3  1  0
  2 12  1  0
  2 23  1  0
  3  4  1  0
  3 24  1  0
  3 25  1  0
  4  5  1  0
  4 11  1  0
  4 36  1  0
  5  6  1  0
  5 26  1  0
  5 27  1  0
  6  7  2  0
  6  8  1  0
  8  9  1  0
  8 28  1  0
  9 10  2  0
  9 11  1  0
 11 29  1  0
 11 30  1  0
 12 13  1  0
 12 19  1  0
 13 14  1  0
 13 31  1  0
 13 32  1  0
 14 15  2  0
 14 16  1  0
 16 17  1  0
 16 33  1  0
 17 18  2  0
 17 19  1  0
 19 34  1  0
 19 35  1  0
M  CHG  1   4   1
M  END
> <Mol2_MolInfo_Name>
5207

> <Mol2_MolInfo_Type>
SMALL

> <Mol2_MolInfo_Charge>
USER_CHARGES

> <Mol2_Substructures>
     1 UNK         1 GROUP             0       ****    0 ROOT    

> <Name>
5207

$$$$
5207
  SciTegic06232017503D

 36 37  0  0  0  0            999 V2000
   -0.6127    1.3562   -0.0591 C   0  0
   -0.0954   -0.1084    0.0155 C   0  0  1  0  0  0
    1.4659   -0.1440   -0.0550 C   0  0
    2.0505    0.6796   -1.2397 N   0  3  1  0  0  0
    3.5866    0.8269   -1.1081 C   0  0
    4.3335   -0.4654   -1.5126 C   0  0
    5.4527   -0.7471   -1.0926 O   0  0
    3.6726   -1.2733   -2.3729 N   0  0
    2.4672   -1.1651   -2.9769 C   0  0
    2.0543   -2.0216   -3.7544 O   0  0
    1.6623    0.1073   -2.6264 C   0  0
   -0.6125   -0.8206    1.2168 N   0  0
   -2.0884   -0.7436    1.3449 C   0  0
   -2.6219   -1.5170    2.5753 C   0  0
   -3.7002   -1.2644    3.1086 O   0  0
   -1.8389   -2.5178    3.0160 N   0  0
   -0.6236   -2.9228    2.6059 C   0  0
   -0.0260   -3.8350    3.1730 O   0  0
   -0.0594   -2.1883    1.3659 C   0  0
   -0.1939    1.8998   -0.9051 H   0  0
   -0.3610    1.9152    0.8432 H   0  0
   -1.6914    1.4109   -0.2017 H   0  0
   -0.4913   -0.6434   -0.8485 H   0  0
    1.8986    0.3023    0.8421 H   0  0
    1.8697   -1.1474   -0.1855 H   0  0
    3.8690    1.6358   -1.7833 H   0  0
    3.8149    1.1258   -0.0841 H   0  0
    4.1811   -2.1102   -2.6203 H   0  0
    0.5883   -0.0721   -2.6468 H   0  0
    1.8960    0.8922   -3.3468 H   0  0
   -2.4156    0.2855    1.4891 H   0  0
   -2.5806   -1.1160    0.4449 H   0  0
   -2.2056   -3.0210    3.8106 H   0  0
   -0.2472   -2.7875    0.4732 H   0  0
    1.0190   -2.1608    1.5168 H   0  0
    1.6498    1.6038   -1.1568 H   0  0
  1  2  1  0
  1 20  1  0
  1 21  1  0
  1 22  1  0
  2  3  1  0
  2 12  1  0
  2 23  1  0
  3  4  1  0
  3 24  1  0
  3 25  1  0
  4  5  1  0
  4 11  1  0
  4 36  1  0
  5  6  1  0
  5 26  1  0
  5 27  1  0
  6  7  2  0
  6  8  1  0
  8  9  1  0
  8 28  1  0
  9 10  2  0
  9 11  1  0
 11 29  1  0
 11 30  1  0
 12 13  1  0
 12 19  1  0
 13 14  1  0
 13 31  1  0
 13 32  1  0
 14 15  2  0
 14 16  1  0
 16 17  1  0
 16 33  1  0
 17 18  2  0
 17 19  1  0
 19 34  1  0
 19 35  1  0
M  CHG  1   4   1
M  END
> <Mol2_MolInfo_Name>
5207

> <Mol2_MolInfo_Type>
SMALL

> <Mol2_MolInfo_Charge>
USER_CHARGES

> <Mol2_Substructures>
     1 UNK         1 GROUP             0       ****    0 ROOT    

> <Name>
5207

$$$$
5272
  SciTegic06232017503D

 35 39  0  0  0  0            999 V2000
    4.2628   -0.7799   -3.3990 O   0  5
    3.3202   -0.4529   -2.6115 C   0  0
    2.4116    0.5468   -2.9833 C   0  0
    2.5395    1.5550   -4.8208 I   0  0
    1.3791    0.9009   -2.1177 C   0  0
    1.2183    0.2823   -0.8717 C   0  0
    2.1397   -0.7146   -0.5152 C   0  0
    2.0563   -1.3893    0.6831 O   0  0
    1.2538   -0.9334    1.7059 C   0  0
    1.4556   -1.5158    2.9627 C   0  0
    2.9390   -2.9932    3.1877 I   0  0
    0.6652   -1.1081    4.0468 C   0  0
    0.8359   -1.6255    5.1951 O   0  5
   -0.3169   -0.1265    3.8596 C   0  0
   -1.5451    0.5473    5.4239 I   0  0
   -0.5016    0.4368    2.5989 C   0  0
    0.2731    0.0490    1.4987 C   0  0
    0.0955    0.6677    0.1036 C   0  0  1  0  0  0
    0.1450    2.0820    0.2626 O   0  0
   -1.0045    2.6811   -0.1363 C   0  0
   -1.1632    3.8989   -0.0794 O   0  0
   -1.9250    1.6165   -0.6082 C   0  0
   -3.2258    1.6807   -1.1203 C   0  0
   -4.0266    3.2099   -1.2885 Cl  0  0
   -3.8741    0.4935   -1.4959 C   0  0
   -5.4874    0.5523   -2.1330 Cl  0  0
   -3.2184   -0.7413   -1.3564 C   0  0
   -4.0195   -2.2092   -1.8206 Cl  0  0
   -1.9143   -0.7881   -0.8412 C   0  0
   -1.0867   -2.2995   -0.6605 Cl  0  0
   -1.2762    0.4004   -0.4696 C   0  0
    3.1832   -1.0894   -1.3695 C   0  0
    4.5158   -2.6038   -0.7660 I   0  0
    0.6884    1.6742   -2.4206 H   0  0
   -1.2629    1.1928    2.4734 H   0  0
  1  2  1  0
  2  3  2  0
  2 32  1  0
  3  4  1  0
  3  5  1  0
  5  6  2  0
  5 34  1  0
  6  7  1  0
  6 18  1  0
  7  8  1  0
  7 32  2  0
  8  9  1  0
  9 10  2  0
  9 17  1  0
 10 11  1  0
 10 12  1  0
 12 13  1  0
 12 14  2  0
 14 15  1  0
 14 16  1  0
 16 17  2  0
 16 35  1  0
 17 18  1  0
 18 19  1  0
 18 31  1  0
 19 20  1  0
 20 21  2  0
 20 22  1  0
 22 23  2  0
 22 31  1  0
 23 24  1  0
 23 25  1  0
 25 26  1  0
 25 27  2  0
 27 28  1  0
 27 29  1  0
 29 30  1  0
 29 31  2  0
 32 33  1  0
M  CHG  2   1  -1  13  -1
M  END
> <Mol2_MolInfo_Name>
5272

> <Mol2_MolInfo_Type>
SMALL

> <Mol2_MolInfo_Charge>
USER_CHARGES

> <Mol2_Substructures>
     1 UNK         1 GROUP             0       ****    0 ROOT    

> <Name>
5272

$$$$
5272
  SciTegic06232017503D

 36 40  0  0  0  0            999 V2000
   -6.4629    5.1811   -0.7760 O   0  5
   -5.9953    4.0131   -0.5952 C   0  0
   -6.8524    2.9054   -0.6110 C   0  0
   -8.9203    3.0885   -0.9254 I   0  0
   -6.3352    1.6269   -0.4165 C   0  0
   -4.9680    1.4094   -0.2024 C   0  0
   -4.1255    2.5320   -0.1852 C   0  0
   -2.7690    2.4268    0.0292 O   0  0
   -2.1327    1.2056    0.0226 C   0  0
   -0.7335    1.2364    0.0297 C   0  0
    0.2755    3.0795    0.0387 I   0  0
   -0.0164    0.0357    0.0285 C   0  0
    1.3551    0.0481    0.0333 O   0  0
   -0.7013   -1.1822    0.0212 C   0  0
    0.3209   -3.0120    0.0163 I   0  0
   -2.0945   -1.1948    0.0144 C   0  0
   -2.8398   -0.0077    0.0152 C   0  0
   -4.3759    0.0028   -0.0214 C   0  0  1  0  0  0
   -4.8190   -0.4688    1.2440 O   0  0
   -5.5741   -1.5907    1.1365 C   0  0
   -6.0581   -2.1513    2.1176 O   0  0
   -5.6590   -1.9399   -0.3037 C   0  0
   -6.3042   -2.9908   -0.9658 C   0  0
   -7.2044   -4.1700   -0.0674 Cl  0  0
   -6.2134   -3.0777   -2.3644 C   0  0
   -7.0059   -4.3728   -3.2044 Cl  0  0
   -5.4816   -2.1174   -3.0838 C   0  0
   -5.3660   -2.2238   -4.8117 Cl  0  0
   -4.8429   -1.0697   -2.4041 C   0  0
   -3.9364    0.1309   -3.2635 Cl  0  0
   -4.9397   -0.9919   -1.0115 C   0  0
   -4.6226    3.8260   -0.3795 C   0  0
   -3.2922    5.4578   -0.3459 I   0  0
   -7.0122    0.7853   -0.4354 H   0  0
    1.7314   -0.8347    0.0076 H   0  0
   -2.6068   -2.1460    0.0060 H   0  0
  1  2  1  0
  2  3  2  0
  2 32  1  0
  3  4  1  0
  3  5  1  0
  5  6  2  0
  5 34  1  0
  6  7  1  0
  6 18  1  0
  7  8  1  0
  7 32  2  0
  8  9  1  0
  9 10  2  0
  9 17  1  0
 10 11  1  0
 10 12  1  0
 12 13  1  0
 12 14  2  0
 13 35  1  0
 14 15  1  0
 14 16  1  0
 16 17  2  0
 16 36  1  0
 17 18  1  0
 18 19  1  0
 18 31  1  0
 19 20  1  0
 20 21  2  0
 20 22  1  0
 22 23  2  0
 22 31  1  0
 23 24  1  0
 23 25  1  0
 25 26  1  0
 25 27  2  0
 27 28  1  0
 27 29  1  0
 29 30  1  0
 29 31  2  0
 32 33  1  0
M  CHG  1   1  -1
M  END
> <Mol2_MolInfo_Name>
5272

> <Mol2_MolInfo_Type>
SMALL

> <Mol2_MolInfo_Charge>
USER_CHARGES

> <Mol2_Substructures>
     1 UNK         1 GROUP             0       ****    0 ROOT    

> <Name>
5272

$$$$
5272
  SciTegic06232017503D

 36 40  0  0  0  0            999 V2000
   -6.5261    5.1951    0.2503 O   0  5
   -6.0410    4.0220    0.1905 C   0  0
   -6.8929    2.9103    0.2056 C   0  0
   -8.9811    3.0956    0.3243 I   0  0
   -6.3566    1.6265    0.1437 C   0  0
   -4.9754    1.4075    0.0663 C   0  0
   -4.1375    2.5336    0.0469 C   0  0
   -2.7663    2.4294   -0.0332 O   0  0
   -2.1305    1.2079   -0.0250 C   0  0
   -0.7314    1.2411   -0.0390 C   0  0
    0.2741    3.0861   -0.0710 I   0  0
   -0.0116    0.0420   -0.0292 C   0  0
    1.3598    0.0573   -0.0422 O   0  0
   -0.6939   -1.1770   -0.0046 C   0  0
    0.3313   -3.0052    0.0166 I   0  0
   -2.0870   -1.1922    0.0080 C   0  0
   -2.8345   -0.0067   -0.0027 C   0  0
   -4.3700   -0.0036    0.0260 C   0  0  2  0  0  0
   -4.8052   -0.6054   -1.1867 O   0  0
   -5.5425   -1.7230   -0.9673 C   0  0
   -6.0120   -2.3895   -1.8874 O   0  0
   -5.6313   -1.9223    0.5011 C   0  0
   -6.2679   -2.9072    1.2650 C   0  0
   -7.1461   -4.1860    0.4891 Cl  0  0
   -6.1865   -2.8466    2.6655 C   0  0
   -6.9690   -4.0577    3.6310 Cl  0  0
   -5.4728   -1.8066    3.2854 C   0  0
   -5.3707   -1.7299    5.0157 Cl  0  0
   -4.8415   -0.8276    2.5043 C   0  0
   -3.9562    0.4670    3.2406 Cl  0  0
   -4.9285   -0.8965    1.1106 C   0  0
   -4.6540    3.8332    0.1100 C   0  0
   -3.3307    5.4712    0.0881 I   0  0
   -7.0290    0.7811    0.1599 H   0  0
    1.7379   -0.8243   -0.0060 H   0  0
   -2.5986   -2.1437    0.0280 H   0  0
  1  2  1  0
  2  3  2  0
  2 32  1  0
  3  4  1  0
  3  5  1  0
  5  6  2  0
  5 34  1  0
  6  7  1  0
  6 18  1  0
  7  8  1  0
  7 32  2  0
  8  9  1  0
  9 10  2  0
  9 17  1  0
 10 11  1  0
 10 12  1  0
 12 13  1  0
 12 14  2  0
 13 35  1  0
 14 15  1  0
 14 16  1  0
 16 17  2  0
 16 36  1  0
 17 18  1  0
 18 19  1  0
 18 31  1  0
 19 20  1  0
 20 21  2  0
 20 22  1  0
 22 23  2  0
 22 31  1  0
 23 24  1  0
 23 25  1  0
 25 26  1  0
 25 27  2  0
 27 28  1  0
 27 29  1  0
 29 30  1  0
 29 31  2  0
 32 33  1  0
M  CHG  1   1  -1
M  END
> <Mol2_MolInfo_Name>
5272

> <Mol2_MolInfo_Type>
SMALL

> <Mol2_MolInfo_Charge>
USER_CHARGES

> <Mol2_Substructures>
     1 UNK         1 GROUP             0       ****    0 ROOT    

> <Name>
5272

$$$$
5316
  SciTegic06232017502D

 19 20  0  0  0  0            999 V2000
    0.0212   -0.0740    0.0000 N   0  0
    1.4184    0.0012    0.0000 C   0  0
    2.1126   -1.2112    0.0000 C   0  0
    3.5040   -1.2356    0.0000 C   0  0
    4.2227   -0.0448    0.0000 C   0  0
    3.5514    1.1865    0.0000 C   0  0
    4.3606    2.4786    0.0000 C   0  0
    5.5909    2.4081    0.0000 O   0  0
    3.7161    3.6370    0.0000 N   0  0
    2.3183    3.5965    0.0000 N   0  0
    1.4358    2.5680    0.0000 C   0  0
    0.2229    2.7779    0.0000 O   0  0
    2.1405    1.2195    0.0000 C   0  0
   -0.5135    0.7837    0.0000 H   0  0
   -0.4326   -0.9755    0.0000 H   0  0
    1.5755   -2.1492    0.0000 H   0  0
    4.0271   -2.1804    0.0000 H   0  0
    5.3022   -0.0949    0.0000 H   0  0
    1.8737    4.5031    0.0000 H   0  0
  1  2  1  0
  1 14  1  0
  1 15  1  0
  2  3  4  0
  2 13  4  0
  3  4  4  0
  3 16  1  0
  4  5  4  0
  4 17  1  0
  5  6  4  0
  5 18  1  0
  6  7  4  0
  6 13  4  0
  7  8  2  0
  7  9  4  0
  9 10  1  0
 10 11  4  0
 10 19  1  0
 11 12  2  0
 11 13  4  0
M  END
> <Mol2_MolInfo_Name>
5316

> <Mol2_MolInfo_Type>
SMALL

> <Mol2_MolInfo_Charge>
USER_CHARGES

> <Mol2_Substructures>
     1 UNK         1 GROUP             0       ****    0 ROOT    

> <Name>
5316

$$$$
5316
  SciTegic06232017502D

 19 20  0  0  0  0            999 V2000
    0.0200   -0.0814    0.0000 N   0  0
    1.4160    0.0117    0.0000 C   0  0
    2.1103   -1.2017    0.0000 C   0  0
    3.5012   -1.2302    0.0000 C   0  0
    4.2209   -0.0411    0.0000 C   0  0
    3.5477    1.1853    0.0000 C   0  0
    4.3692    2.4518    0.0000 C   0  0
    5.5978    2.5283    0.0000 O   0  0
    3.5799    3.5508    0.0000 N   0  0
    2.1908    3.7065    0.0000 N   0  0
    1.4454    2.6088    0.0000 C   0  0
    0.2162    2.6760    0.0000 O   0  0
    2.1366    1.2361    0.0000 C   0  0
   -0.5254    0.7697    0.0000 H   0  0
   -0.4226   -0.9884    0.0000 H   0  0
    1.5726   -2.1393    0.0000 H   0  0
    4.0225   -2.1761    0.0000 H   0  0
    5.3010   -0.0852    0.0000 H   0  0
    4.0992    4.4167    0.0000 H   0  0
  1  2  1  0
  1 14  1  0
  1 15  1  0
  2  3  4  0
  2 13  4  0
  3  4  4  0
  3 16  1  0
  4  5  4  0
  4 17  1  0
  5  6  4  0
  5 18  1  0
  6  7  4  0
  6 13  4  0
  7  8  2  0
  7  9  4  0
  9 10  1  0
  9 19  1  0
 10 11  4  0
 11 12  2  0
 11 13  4  0
M  END
> <Mol2_MolInfo_Name>
5316

> <Mol2_MolInfo_Type>
SMALL

> <Mol2_MolInfo_Charge>
USER_CHARGES

> <Mol2_Substructures>
     1 UNK         1 GROUP             0       ****    0 ROOT    

> <Name>
5316

$$$$
5872
  SciTegic06232017503D

 45 48  0  0  0  0            999 V2000
   -0.1031    2.4301   -0.2225 C   0  0
   -0.4613    1.0103    0.2627 N   0  3  1  0  0  0
   -1.9894    0.8218    0.3284 C   0  0
    0.2106   -0.0987   -0.5780 C   0  0
    1.7423   -0.0925   -0.3867 C   0  0
    2.3019   -1.4305   -0.2130 N   0  0
    2.4280   -2.0491    1.0474 C   0  0
    2.1575   -1.3112    2.1548 N   0  0
    2.2703   -1.8773    3.3844 C   0  0
    1.9889   -1.0682    4.5120 C   0  0
    2.0908   -1.5962    5.7952 C   0  0
    1.8222   -0.8072    6.8817 O   0  0
    2.4661   -2.9216    5.9808 C   0  0
    2.7479   -3.7408    4.8907 C   0  0
    2.6591   -3.2420    3.5626 C   0  0
    2.9339   -4.0111    2.3873 C   0  0
    3.3471   -5.4163    2.1546 C   0  0
    3.6058   -6.4964    3.0104 C   0  0
    3.9876   -7.7330    2.4864 C   0  0
    4.1142   -7.9039    1.1084 C   0  0
    3.8571   -6.8375    0.2483 C   0  0
    3.4742   -5.6034    0.7792 C   0  0
    3.1510   -4.3594    0.0623 C   0  0
    3.1571   -4.1729   -1.1543 O   0  0
    2.8162   -3.3929    1.1392 C   0  0
   -0.4707    2.5359   -1.2443 H   0  0
    0.9803    2.5394   -0.1730 H   0  0
   -0.5903    3.1343    0.4531 H   0  0
   -2.3803    0.9034   -0.6870 H   0  0
   -2.3863    1.6039    0.9768 H   0  0
   -2.1768   -0.1647    0.7545 H   0  0
   -0.2379   -1.0390   -0.2505 H   0  0
   -0.0850    0.0761   -1.6139 H   0  0
    2.2280    0.3728   -1.2450 H   0  0
    2.0268    0.5384    0.4566 H   0  0
    2.3700   -2.0213   -1.0300 H   0  0
    1.6975   -0.0374    4.3672 H   0  0
    1.5840    0.0920    6.6454 H   0  0
    2.5437   -3.3237    6.9808 H   0  0
    3.0368   -4.7570    5.0822 H   0  0
    3.5233   -6.4246    4.0802 H   0  0
    4.1852   -8.5609    3.1511 H   0  0
    4.4098   -8.8623    0.7076 H   0  0
    3.9565   -6.9817   -0.8181 H   0  0
   -0.1135    0.9134    1.2070 H   0  0
  1  2  1  0
  1 26  1  0
  1 27  1  0
  1 28  1  0
  2  3  1  0
  2  4  1  0
  2 45  1  0
  3 29  1  0
  3 30  1  0
  3 31  1  0
  4  5  1  0
  4 32  1  0
  4 33  1  0
  5  6  1  0
  5 34  1  0
  5 35  1  0
  6  7  1  0
  6 36  1  0
  7  8  2  0
  7 25  1  0
  8  9  1  0
  9 10  2  0
  9 15  1  0
 10 11  1  0
 10 37  1  0
 11 12  1  0
 11 13  2  0
 12 38  1  0
 13 14  1  0
 13 39  1  0
 14 15  2  0
 14 40  1  0
 15 16  1  0
 16 17  1  0
 16 25  2  0
 17 18  2  0
 17 22  1  0
 18 19  1  0
 18 41  1  0
 19 20  2  0
 19 42  1  0
 20 21  1  0
 20 43  1  0
 21 22  2  0
 21 44  1  0
 22 23  1  0
 23 24  2  0
 23 25  1  0
M  CHG  1   2   1
M  END
> <Mol2_MolInfo_Name>
5872

> <Mol2_MolInfo_Type>
SMALL

> <Mol2_MolInfo_Charge>
USER_CHARGES

> <Mol2_Substructures>
     1 UNK         1 GROUP             0       ****    0 ROOT    

> <Name>
5872

$$$$
6835
  SciTegic06232017502D

 28 30  0  0  0  0            999 V2000
    0.0645    0.0134    0.0000 N   0  0
    1.4583    0.0086    0.0000 C   0  0
    2.1476   -1.2052    0.0000 C   0  0
    3.5423   -1.2373    0.0000 C   0  0
    4.2822   -0.0294    0.0000 C   0  0
    5.6953    0.0082    0.0000 C   0  0
    6.4047    1.2311    0.0000 C   0  0
    7.8194    1.3024    0.0000 C   0  0
    8.4591    2.5422    0.0000 C   0  0
    7.7236    3.7285    0.0000 C   0  0
    8.3873    4.9543    0.0000 N   0  0
    6.3290    3.6982    0.0000 C   0  0
    5.6687    2.4495    0.0000 C   0  0
    4.2954    2.3658    0.0000 N   0  0
    3.5647    1.2001    0.0000 C   0  0
    2.1524    1.2185    0.0000 C   0  0
   -0.4300    0.8939    0.0000 H   0  0
   -0.4367   -0.8634    0.0000 H   0  0
    1.6023   -2.1384    0.0000 H   0  0
    4.0637   -2.1841    0.0000 H   0  0
    6.2471   -0.9215    0.0000 H   0  0
    8.4010    0.3913    0.0000 H   0  0
    9.5394    2.5738    0.0000 H   0  0
    7.8518    5.8105    0.0000 H   0  0
    9.3971    4.9741    0.0000 H   0  0
    5.7493    4.6109    0.0000 H   0  0
    1.6287    2.1644    0.0000 H   0  0
    3.7793    3.2338    0.0000 H   0  0
  1  2  1  0
  1 17  1  0
  1 18  1  0
  2  3  2  0
  2 16  1  0
  3  4  1  0
  3 19  1  0
  4  5  2  0
  4 20  1  0
  5  6  1  0
  5 15  1  0
  6  7  2  0
  6 21  1  0
  7  8  1  0
  7 13  1  0
  8  9  2  0
  8 22  1  0
  9 10  1  0
  9 23  1  0
 10 11  1  0
 10 12  1  0
 11 24  1  0
 11 25  1  0
 12 13  2  0
 12 26  1  0
 13 14  1  0
 14 15  1  0
 14 28  1  0
 15 16  2  0
 16 27  1  0
M  END
> <Mol2_MolInfo_Name>
6835

> <Mol2_MolInfo_Type>
SMALL

> <Mol2_MolInfo_Charge>
USER_CHARGES

> <Mol2_Substructures>
     1 UNK         1 GROUP             0       ****    0 ROOT    

> <Name>
6835

$$$$
6864
  SciTegic06232017503D

 31 33  0  0  0  0            999 V2000
   -0.0903   -0.0106    0.0361 C   0  0
    1.3794    0.0165   -0.0175 N   0  0
    2.0914   -1.1955   -0.1394 C   0  0
    1.4871   -2.3835   -0.4590 C   0  0
    2.1811   -3.6020   -0.5204 C   0  0
    1.5530   -4.7122   -0.8467 N   0  0
    3.5474   -3.6259   -0.2228 C   0  0
    4.2112   -2.4889    0.0924 C   0  0
    3.5382   -1.2002    0.1307 C   0  0
    4.1785   -0.0455    0.3768 C   0  0
    3.4658    1.2383    0.3497 C   0  0
    4.1800    2.4295    0.5004 C   0  0
    3.5214    3.6546    0.4346 C   0  0
    2.1472    3.6965    0.2070 C   0  0
    1.4921    4.9245    0.1290 N   0  0
    1.4274    2.5107    0.0514 C   0  0
    2.0701    1.2625    0.1293 C   0  0
   -0.5203    0.8523    0.5416 H   0  0
   -0.4476   -0.8725    0.6005 H   0  0
   -0.5063   -0.0635   -0.9705 H   0  0
    0.4280   -2.4203   -0.6702 H   0  0
    0.5602   -4.7100   -1.0621 H   0  0
    4.0766   -4.5684   -0.2467 H   0  0
    5.2669   -2.5477    0.3172 H   0  0
    5.2424   -0.0603    0.5701 H   0  0
    5.2483    2.4126    0.6632 H   0  0
    4.0867    4.5680    0.5519 H   0  0
    0.3689    2.5816   -0.1468 H   0  0
    2.0448   -5.6001   -0.8914 H   0  0
    0.4957    4.9475   -0.0337 H   0  0
    2.0194    5.7784    0.2419 H   0  0
  1  2  1  0
  1 18  1  0
  1 19  1  0
  1 20  1  0
  2  3  1  0
  2 17  1  0
  3  4  2  0
  3  9  1  0
  4  5  1  0
  4 21  1  0
  5  6  2  0
  5  7  1  0
  6 22  1  0
  6 29  1  0
  7  8  2  0
  7 23  1  0
  8  9  1  0
  8 24  1  0
  9 10  2  0
 10 11  1  0
 10 25  1  0
 11 12  2  0
 11 17  1  0
 12 13  1  0
 12 26  1  0
 13 14  2  0
 13 27  1  0
 14 15  1  0
 14 16  1  0
 15 30  1  0
 15 31  1  0
 16 17  2  0
 16 28  1  0
M  END
> <Mol2_MolInfo_Name>
6864

> <Mol2_MolInfo_Type>
SMALL

> <Mol2_MolInfo_Charge>
USER_CHARGES

> <Mol2_Substructures>
     1 UNK         1 GROUP             0       ****    0 ROOT    

> <Name>
6864

$$$$
6930
  SciTegic06232017503D

 38 41  0  0  0  0            999 V2000
    0.0186   -0.1041    0.2238 O   0  0
    1.3889   -0.0910    0.1478 C   0  0
    2.0615    1.1284    0.1499 C   0  0
    3.4574    1.1962    0.0689 C   0  0
    4.1476    2.5617    0.1061 C   0  0
    5.5698    2.4610    0.6791 C   0  0
    6.3483    1.4298   -0.1404 C   0  0  1  0  0  0
    7.8496    1.4021    0.2274 N   0  3
    8.5931    0.0592    0.0055 C   0  0
    7.9009   -0.7821   -1.0711 C   0  0
    8.6429   -1.5043   -2.0116 C   0  0
    8.0112   -2.2434   -3.0079 C   0  0
    6.6226   -2.2613   -3.0787 C   0  0
    5.8709   -1.5509   -2.1459 C   0  0
    6.4910   -0.8205   -1.1203 C   0  0
    5.7483    0.0042   -0.0568 C   0  0  2  0  0  0
    4.2039   -0.0053   -0.0334 C   0  0
    3.5090   -1.2231    0.0013 C   0  0
    2.1197   -1.2774    0.0791 C   0  0
    1.4953   -2.4995    0.0950 O   0  0
   -0.3670    0.7738    0.2639 H   0  0
    1.4906    2.0437    0.2173 H   0  0
    4.1892    2.9620   -0.9081 H   0  0
    3.5626    3.2724    0.6919 H   0  0
    6.0776    3.4265    0.6746 H   0  0
    5.5433    2.1622    1.7286 H   0  0
    6.3479    1.7513   -1.1855 H   0  0
    8.3158    2.1273   -0.2991 H   0  0
    9.6194    0.3330   -0.2422 H   0  0
    8.5884   -0.4529    0.9685 H   0  0
    9.7225   -1.4862   -1.9747 H   0  0
    8.5975   -2.7924   -3.7301 H   0  0
    6.1278   -2.8208   -3.8590 H   0  0
    4.7967   -1.5691   -2.2425 H   0  0
    6.0201   -0.4148    0.9147 H   0  0
    4.0654   -2.1489   -0.0271 H   0  0
    2.1066   -3.2383    0.0544 H   0  0
    7.9482    1.6513    1.2014 H   0  0
  1  2  1  0
  1 21  1  0
  2  3  2  0
  2 19  1  0
  3  4  1  0
  3 22  1  0
  4  5  1  0
  4 17  2  0
  5  6  1  0
  5 23  1  0
  5 24  1  0
  6  7  1  0
  6 25  1  0
  6 26  1  0
  7  8  1  0
  7 16  1  0
  7 27  1  0
  8  9  1  0
  8 28  1  0
  8 38  1  0
  9 10  1  0
  9 29  1  0
  9 30  1  0
 10 11  2  0
 10 15  1  0
 11 12  1  0
 11 31  1  0
 12 13  2  0
 12 32  1  0
 13 14  1  0
 13 33  1  0
 14 15  2  0
 14 34  1  0
 15 16  1  0
 16 17  1  0
 16 35  1  0
 17 18  1  0
 18 19  2  0
 18 36  1  0
 19 20  1  0
 20 37  1  0
M  CHG  1   8   1
M  END
> <Mol2_MolInfo_Name>
6930

> <Mol2_MolInfo_Type>
SMALL

> <Mol2_MolInfo_Charge>
USER_CHARGES

> <Mol2_Substructures>
     1 UNK         1 GROUP             0       ****    0 ROOT    

> <Name>
6930

$$$$
6967
  SciTegic06232017503D

 85 93  0  0  0  0            999 V2000
   -2.9960   -0.7263    1.8161 O   0  0
   -2.2673   -0.4559    0.6885 C   0  0
   -2.9169   -0.2553   -0.5296 C   0  0
   -2.1749    0.0209   -1.6773 C   0  0
   -0.7838    0.0955   -1.6068 C   0  0
   -0.1205   -0.1035   -0.3900 C   0  0
   -0.8750   -0.3814    0.7562 C   0  0
    1.3674   -0.0290   -0.3174 C   0  0
    1.9631    1.2419   -0.2582 C   0  0
    1.1407    2.5102   -0.2365 C   0  0
    2.1601    3.6025   -0.1823 C   0  0
    3.4821    2.8694   -0.1730 C   0  0
    3.2959    1.5203   -0.2085 N   0  0
    4.7093    3.5516   -0.1281 C   0  0
    4.6841    5.0429   -0.1156 C   0  0
    4.5102    5.7609   -1.3049 C   0  0
    4.4965    7.1557   -1.2963 C   0  0
    4.6574    7.8468   -0.0961 C   0  0
    4.8311    7.1429    1.0955 C   0  0
    4.9877    7.8229    2.2741 O   0  0
    4.8452    5.7468    1.0842 C   0  0
    5.9753    2.9031   -0.0960 C   0  0
    7.1832    3.5522   -0.0715 C   0  0
    8.2110    2.6207   -0.0490 C   0  0
    7.6776    1.3597   -0.0522 C   0  0
    6.3013    1.5551   -0.0868 N   0  0
    8.4217    0.1481   -0.0317 C   0  0
    9.9122    0.2201    0.0295 C   0  0
   10.6898   -0.1691   -1.0686 C   0  0
   12.0821   -0.1055   -1.0131 C   0  0
   12.7135    0.3509    0.1429 C   0  0
   11.9520    0.7418    1.2440 C   0  0
   12.5732    1.1890    2.3797 O   0  0
   10.5587    0.6757    1.1861 C   0  0
    7.8096   -1.1315   -0.0647 C   0  0
    8.4444   -2.3448   -0.0124 C   0  0
    7.4965   -3.3605   -0.0622 C   0  0
    6.2458   -2.8069   -0.1475 C   0  0
    6.4614   -1.4387   -0.1451 N   0  0
    5.0121   -3.5044   -0.2142 C   0  0
    3.7540   -2.8438   -0.2667 C   0  0
    2.5354   -3.4600   -0.3657 C   0  0
    1.5368   -2.4969   -0.3919 C   0  0
    2.1001   -1.2488   -0.3135 C   0  0
    3.4650   -1.4839   -0.2410 N   0  0
    5.0417   -4.9973   -0.2278 C   0  0
    5.5364   -5.6904   -1.3399 C   0  0
    5.5700   -7.0849   -1.3522 C   0  0
    5.1073   -7.8029   -0.2505 C   0  0
    4.6104   -7.1259    0.8631 C   0  0
    4.1561   -7.8319    1.9452 O   0  0
    4.5785   -5.7302    0.8728 C   0  0
   -2.4511   -0.8443    2.5973 H   0  0
   -3.9942   -0.3131   -0.5882 H   0  0
   -2.6773    0.1763   -2.6208 H   0  0
   -0.2180    0.3082   -2.5024 H   0  0
   -0.3749   -0.5391    1.7011 H   0  0
    0.5162    2.6149   -1.1250 H   0  0
    0.4767    2.5547    0.6282 H   0  0
    2.0582    4.2627   -1.0448 H   0  0
    2.0239    4.2173    0.7089 H   0  0
    4.3872    5.2357   -2.2412 H   0  0
    4.3624    7.7008   -2.2190 H   0  0
    4.6473    8.9272   -0.0938 H   0  0
    5.0896    7.2448    3.0334 H   0  0
    4.9824    5.2043    2.0089 H   0  0
    7.3493    4.6198   -0.0730 H   0  0
    9.2578    2.8876   -0.0330 H   0  0
    5.6177    0.8127   -0.1021 H   0  0
   10.2125   -0.5232   -1.9713 H   0  0
   12.6717   -0.4091   -1.8656 H   0  0
   13.7923    0.3996    0.1814 H   0  0
   11.9593    1.4259    3.0783 H   0  0
    9.9730    0.9778    2.0427 H   0  0
    9.5076   -2.5218    0.0611 H   0  0
    7.7441   -4.4117   -0.0319 H   0  0
    2.3423   -4.5217   -0.4197 H   0  0
    0.4853   -2.7339   -0.4673 H   0  0
    4.1576   -0.7529   -0.1745 H   0  0
    5.8980   -5.1456   -2.2002 H   0  0
    5.9553   -7.6083   -2.2148 H   0  0
    5.1356   -8.8830   -0.2635 H   0  0
    3.8428   -7.2712    2.6583 H   0  0
    4.1951   -5.2097    1.7389 H   0  0
    5.7260   -0.7498   -0.1986 H   0  0
  1  2  1  0
  1 53  1  0
  2  3  2  0
  2  7  1  0
  3  4  1  0
  3 54  1  0
  4  5  2  0
  4 55  1  0
  5  6  1  0
  5 56  1  0
  6  7  2  0
  6  8  1  0
  7 57  1  0
  8  9  2  0
  8 44  1  0
  9 10  1  0
  9 13  1  0
 10 11  1  0
 10 58  1  0
 10 59  1  0
 11 12  1  0
 11 60  1  0
 11 61  1  0
 12 13  2  0
 12 14  1  0
 14 15  1  0
 14 22  2  0
 15 16  2  0
 15 21  1  0
 16 17  1  0
 16 62  1  0
 17 18  2  0
 17 63  1  0
 18 19  1  0
 18 64  1  0
 19 20  1  0
 19 21  2  0
 20 65  1  0
 21 66  1  0
 22 23  1  0
 22 26  1  0
 23 24  2  0
 23 67  1  0
 24 25  1  0
 24 68  1  0
 25 26  1  0
 25 27  2  0
 26 69  1  0
 27 28  1  0
 27 35  1  0
 28 29  2  0
 28 34  1  0
 29 30  1  0
 29 70  1  0
 30 31  2  0
 30 71  1  0
 31 32  1  0
 31 72  1  0
 32 33  1  0
 32 34  2  0
 33 73  1  0
 34 74  1  0
 35 36  2  0
 35 39  1  0
 36 37  1  0
 36 75  1  0
 37 38  2  0
 37 76  1  0
 38 39  1  0
 38 40  1  0
 39 85  1  0
 40 41  2  0
 40 46  1  0
 41 42  1  0
 41 45  1  0
 42 43  1  0
 42 77  1  0
 43 44  2  0
 43 78  1  0
 44 45  1  0
 45 79  1  0
 46 47  2  0
 46 52  1  0
 47 48  1  0
 47 80  1  0
 48 49  2  0
 48 81  1  0
 49 50  1  0
 49 82  1  0
 50 51  1  0
 50 52  2  0
 51 83  1  0
 52 84  1  0
M  END
> <Mol2_MolInfo_Name>
6967

> <Mol2_MolInfo_Type>
SMALL

> <Mol2_MolInfo_Charge>
USER_CHARGES

> <Mol2_Substructures>
     1 UNK         1 GROUP             0       ****    0 ROOT    

> <Name>
6967

$$$$
7018
  SciTegic06232017503D

 25 26  0  0  0  0            999 V2000
   -0.5293    0.6150   -0.8056 C   0  0
    0.0975    0.1461    0.5185 C   0  0
    1.5556   -0.0572    0.4499 N   0  0
    2.3941    0.7578    1.1235 C   0  0
    2.1538    1.6503    1.9371 O   0  0
    3.5798    0.3744    0.6440 N   0  0
    3.5262   -0.6242   -0.2228 N   0  0
    2.2991   -0.8959   -0.3193 C   0  0
    1.7428   -1.9695   -1.1674 C   0  0
    2.2960   -2.2023   -2.4344 C   0  0
    1.7867   -3.2092   -3.2501 C   0  0
    0.7285   -3.9948   -2.8000 C   0  0
    0.0971   -5.2431   -3.8109 Cl  0  0
    0.1804   -3.7844   -1.5370 C   0  0
    0.6883   -2.7774   -0.7208 C   0  0
   -1.6001    0.7769   -0.6825 H   0  0
   -0.4057   -0.1221   -1.5989 H   0  0
   -0.0930    1.5571   -1.1386 H   0  0
   -0.1520    0.8767    1.2900 H   0  0
   -0.3836   -0.7726    0.8479 H   0  0
    4.4839    0.7566    0.8802 H   0  0
    3.1160   -1.6007   -2.8012 H   0  0
    2.2137   -3.3777   -4.2279 H   0  0
   -0.6319   -4.4035   -1.1852 H   0  0
    0.2671   -2.6556    0.2652 H   0  0
  1  2  1  0
  1 16  1  0
  1 17  1  0
  1 18  1  0
  2  3  1  0
  2 19  1  0
  2 20  1  0
  3  4  1  0
  3  8  1  0
  4  5  2  0
  4  6  1  0
  6  7  1  0
  6 21  1  0
  7  8  2  0
  8  9  1  0
  9 10  2  0
  9 15  1  0
 10 11  1  0
 10 22  1  0
 11 12  2  0
 11 23  1  0
 12 13  1  0
 12 14  1  0
 14 15  2  0
 14 24  1  0
 15 25  1  0
M  END
> <Mol2_MolInfo_Name>
7018

> <Mol2_MolInfo_Type>
SMALL

> <Mol2_MolInfo_Charge>
USER_CHARGES

> <Mol2_Substructures>
     1 UNK         1 GROUP             0       ****    0 ROOT    

> <Name>
7018

$$$$
7318
  SciTegic06232017503D

 34 35  0  0  0  0            999 V2000
   -2.3802   -2.7444    0.0183 C   0  0
   -1.9995   -1.2610    0.0496 C   0  0
   -0.5835   -1.1349    0.0573 O   0  0
   -0.0035    0.0839    0.0424 C   0  0
   -0.5884    1.1689    0.0285 O   0  0
    1.5253    0.0058    0.0309 C   0  0
    2.0282    0.0070   -1.4059 C   0  0
    2.2975   -1.2006   -2.0501 C   0  0
    2.7606   -1.2000   -3.3630 C   0  0
    2.9670    0.0032   -4.0531 C   0  0
    2.7016    1.2086   -3.3874 C   0  0
    2.2387    1.2133   -2.0746 C   0  0
    3.4553    0.0015   -5.4671 C   0  0
    4.2911    1.0244   -5.9398 C   0  0
    4.7418    1.0268   -7.2572 C   0  0
    4.3599    0.0029   -8.1182 C   0  0
    3.5321   -1.0221   -7.6711 C   0  0
    3.0841   -1.0212   -6.3529 C   0  0
   -3.4635   -2.8650    0.0015 H   0  0
   -2.0007   -3.2681    0.8962 H   0  0
   -1.9778   -3.2360   -0.8680 H   0  0
   -2.4149   -0.7547   -0.8235 H   0  0
   -2.4215   -0.7864    0.9369 H   0  0
    1.9349    0.8616    0.5686 H   0  0
    1.8599   -0.8920    0.5523 H   0  0
    2.1456   -2.1395   -1.5373 H   0  0
    2.9672   -2.1483   -3.8371 H   0  0
    2.8399    2.1554   -3.8884 H   0  0
    2.0357    2.1535   -1.5823 H   0  0
    4.6067    1.8235   -5.2856 H   0  0
    5.3859    1.8195   -7.6088 H   0  0
    4.7080    0.0037   -9.1406 H   0  0
    3.2357   -1.8132   -8.3440 H   0  0
    2.4324   -1.8193   -6.0292 H   0  0
  1  2  1  0
  1 19  1  0
  1 20  1  0
  1 21  1  0
  2  3  1  0
  2 22  1  0
  2 23  1  0
  3  4  1  0
  4  5  2  0
  4  6  1  0
  6  7  1  0
  6 24  1  0
  6 25  1  0
  7  8  2  0
  7 12  1  0
  8  9  1  0
  8 26  1  0
  9 10  2  0
  9 27  1  0
 10 11  1  0
 10 13  1  0
 11 12  2  0
 11 28  1  0
 12 29  1  0
 13 14  2  0
 13 18  1  0
 14 15  1  0
 14 30  1  0
 15 16  2  0
 15 31  1  0
 16 17  1  0
 16 32  1  0
 17 18  2  0
 17 33  1  0
 18 34  1  0
M  END
> <Mol2_MolInfo_Name>
7318

> <Mol2_MolInfo_Type>
SMALL

> <Mol2_MolInfo_Charge>
USER_CHARGES

> <Mol2_Substructures>
     1 UNK         1 GROUP             0       ****    0 ROOT    

> <Name>
7318

$$$$
7427
  SciTegic06232017502D

 32 35  0  0  0  0            999 V2000
    0.0351   -0.0744    0.0000 N   0  0
    1.4322   -0.0005    0.0000 C   0  0
    2.1335   -1.1992    0.0000 C   0  0
    3.5538   -1.2485    0.0000 C   0  0
    4.2622   -2.4925    0.0000 C   0  0
    3.6067   -3.7656    0.0000 C   0  0
    4.3372   -4.9503    0.0000 C   0  0
    5.7245   -4.9264    0.0000 C   0  0
    6.4039   -3.7147    0.0000 C   0  0
    5.6909   -2.4895    0.0000 C   0  0
    6.3784   -1.2642    0.0000 C   0  0
    5.6928   -0.0605    0.0000 C   0  0
    4.2695   -0.0094    0.0000 C   0  0
    3.5605    1.2328    0.0000 C   0  0
    4.2328    2.4974    0.0000 C   0  0
    3.5233    3.6926    0.0000 C   0  0
    2.1382    3.6889    0.0000 C   0  0
    1.4417    2.4879    0.0000 C   0  0
    2.1284    1.2376    0.0000 C   0  0
   -0.5072    0.7773    0.0000 H   0  0
   -0.4152   -0.9782    0.0000 H   0  0
    1.5545   -2.1076    0.0000 H   0  0
    2.5334   -3.8515    0.0000 H   0  0
    3.8197   -5.8984    0.0000 H   0  0
    6.2783   -5.8537    0.0000 H   0  0
    7.4845   -3.7036    0.0000 H   0  0
    7.4590   -1.2625    0.0000 H   0  0
    6.2922    0.8336    0.0000 H   0  0
    5.3069    2.5705    0.0000 H   0  0
    4.0556    4.6325    0.0000 H   0  0
    1.5984    4.6243    0.0000 H   0  0
    0.3619    2.5125    0.0000 H   0  0
  1  2  1  0
  1 20  1  0
  1 21  1  0
  2  3  2  0
  2 19  1  0
  3  4  1  0
  3 22  1  0
  4  5  2  0
  4 13  1  0
  5  6  1  0
  5 10  1  0
  6  7  2  0
  6 23  1  0
  7  8  1  0
  7 24  1  0
  8  9  2  0
  8 25  1  0
  9 10  1  0
  9 26  1  0
 10 11  2  0
 11 12  1  0
 11 27  1  0
 12 13  2  0
 12 28  1  0
 13 14  1  0
 14 15  2  0
 14 19  1  0
 15 16  1  0
 15 29  1  0
 16 17  2  0
 16 30  1  0
 17 18  1  0
 17 31  1  0
 18 19  2  0
 18 32  1  0
M  END
> <Mol2_MolInfo_Name>
7427

> <Mol2_MolInfo_Type>
SMALL

> <Mol2_MolInfo_Charge>
USER_CHARGES

> <Mol2_Substructures>
     1 UNK         1 GROUP             0       ****    0 ROOT    

> <Name>
7427

$$$$
7651
  SciTegic06232017503D

 38 40  0  0  0  0            999 V2000
   -0.0977    0.1537    0.2336 C   0  0
    1.4139    0.0586    0.0570 C   0  0
    2.1102   -1.0934   -0.0359 C   0  0
    1.5176   -2.4666   -0.2333 C   0  0
    1.0069   -2.6188   -1.6836 C   0  0
    2.0983   -2.7388   -2.7838 C   0  0  1  0  0  0
    2.6942   -4.1560   -2.8779 C   0  0
    1.7971   -2.1024   -4.0044 O   0  0
    2.9565   -1.6258   -3.3682 C   0  0  1  0  0  0
    3.0286   -0.1204   -2.9473 C   0  0  1  0  0  0
    3.7605    0.5386   -3.9769 O   0  0
    2.9734    1.2535   -4.8040 C   0  0
    3.3427    1.7305   -5.8765 O   0  0
    1.6583    1.3315   -4.1968 C   0  0
    0.5881    1.8694   -4.8099 C   0  0
    1.7513    0.7319   -2.8172 C   0  0  2  0  0  0
    1.8290    1.8474   -1.7208 C   0  0
    2.1041    1.3710   -0.2686 C   0  0
   -0.3272    0.6678    1.1672 H   0  0
   -0.5881   -0.8173    0.2703 H   0  0
   -0.5517    0.7137   -0.5841 H   0  0
    3.1765   -1.0519   -0.2032 H   0  0
    2.2436   -3.2385    0.0234 H   0  0
    0.6920   -2.5960    0.4663 H   0  0
    0.3808   -3.5109   -1.7286 H   0  0
    0.3126   -1.8151   -1.9193 H   0  0
    3.2115   -4.4257   -1.9570 H   0  0
    3.4111   -4.2486   -3.6947 H   0  0
    1.9147   -4.8981   -3.0520 H   0  0
    3.8985   -1.9483   -3.8154 H   0  0
    3.6329   -0.0549   -2.0449 H   0  0
    0.6444    2.2763   -5.8099 H   0  0
   -0.3694    1.9091   -4.3116 H   0  0
    0.8781    0.1131   -2.6306 H   0  0
    2.5892    2.5832   -1.9890 H   0  0
    0.8860    2.3961   -1.7281 H   0  0
    1.8351    2.1404    0.4562 H   0  0
    3.1823    1.2491   -0.1497 H   0  0
  1  2  1  0
  1 19  1  0
  1 20  1  0
  1 21  1  0
  2  3  2  0
  2 18  1  0
  3  4  1  0
  3 22  1  0
  4  5  1  0
  4 23  1  0
  4 24  1  0
  5  6  1  0
  5 25  1  0
  5 26  1  0
  6  7  1  0
  6  8  1  0
  6  9  1  0
  7 27  1  0
  7 28  1  0
  7 29  1  0
  8  9  1  0
  9 10  1  0
  9 30  1  0
 10 11  1  0
 10 16  1  0
 10 31  1  0
 11 12  1  0
 12 13  2  0
 12 14  1  0
 14 15  2  0
 14 16  1  0
 15 32  1  0
 15 33  1  0
 16 17  1  0
 16 34  1  0
 17 18  1  0
 17 35  1  0
 17 36  1  0
 18 37  1  0
 18 38  1  0
M  END
> <Mol2_MolInfo_Name>
7651

> <Mol2_MolInfo_Type>
SMALL

> <Mol2_MolInfo_Charge>
USER_CHARGES

> <Mol2_Substructures>
     1 UNK         1 GROUP             0       ****    0 ROOT    

> <Name>
7651

$$$$
7747
  SciTegic06232017503D

 35 37  0  0  0  0            999 V2000
   -0.1573   -0.2593   -2.5147 O   0  0
   -0.5721   -0.7769   -1.2619 C   0  0  2  0  0  0
   -2.1027   -0.8195   -1.1424 C   0  0
   -2.6632    0.5797   -0.9033 C   0  0
   -3.9761    0.9414   -1.2467 C   0  0
   -4.8203    0.0351   -1.8345 O   0  0
   -4.4558    2.2261   -0.9870 C   0  0
   -3.6324    3.1718   -0.3805 C   0  0
   -4.1048    4.4320   -0.1287 O   0  0
   -2.3258    2.8355   -0.0365 C   0  0
   -1.8440    1.5521   -0.2940 C   0  0
   -0.5118    1.3549    0.0275 O   0  0
    0.0112    0.0197   -0.0666 C   0  0  2  0  0  0
    1.5396    0.0235   -0.0366 C   0  0
    2.2296   -1.0249    0.5812 C   0  0
    3.6238   -1.0343    0.6061 C   0  0
    4.3443    0.0035    0.0126 C   0  0
    5.7157   -0.0300    0.0495 O   0  0
    3.6618    1.0568   -0.6103 C   0  0
    4.3434    2.0906   -1.2023 O   0  0
    2.2654    1.0614   -0.6333 C   0  0
   -0.2356    0.6972   -2.4881 H   0  0
   -0.1930   -1.7998   -1.2315 H   0  0
   -2.5443   -1.2872   -2.0239 H   0  0
   -2.3780   -1.4449   -0.2920 H   0  0
   -5.6885    0.4009   -2.0177 H   0  0
   -5.4694    2.4884   -1.2550 H   0  0
   -5.0142    4.5522   -0.4112 H   0  0
   -1.6818    3.5726    0.4215 H   0  0
   -0.2987   -0.4752    0.8569 H   0  0
    1.6863   -1.8371    1.0420 H   0  0
    4.1418   -1.8512    1.0873 H   0  0
    6.0595   -0.8043    0.5006 H   0  0
    3.7643    2.7518   -1.5877 H   0  0
    1.7431    1.8727   -1.1196 H   0  0
  1  2  1  0
  1 22  1  0
  2  3  1  0
  2 13  1  0
  2 23  1  0
  3  4  1  0
  3 24  1  0
  3 25  1  0
  4  5  2  0
  4 11  1  0
  5  6  1  0
  5  7  1  0
  6 26  1  0
  7  8  2  0
  7 27  1  0
  8  9  1  0
  8 10  1  0
  9 28  1  0
 10 11  2  0
 10 29  1  0
 11 12  1  0
 12 13  1  0
 13 14  1  0
 13 30  1  0
 14 15  2  0
 14 21  1  0
 15 16  1  0
 15 31  1  0
 16 17  2  0
 16 32  1  0
 17 18  1  0
 17 19  1  0
 18 33  1  0
 19 20  1  0
 19 21  2  0
 20 34  1  0
 21 35  1  0
M  END
> <Mol2_MolInfo_Name>
7747

> <Mol2_MolInfo_Type>
SMALL

> <Mol2_MolInfo_Charge>
USER_CHARGES

> <Mol2_Substructures>
     1 UNK         1 GROUP             0       ****    0 ROOT    

> <Name>
7747

$$$$
7897
  SciTegic06232017503D

 40 44  0  0  0  0            999 V2000
   -0.1495   -0.2830   -0.1305 C   0  0
    1.3732   -0.0351   -0.0238 N   0  3  1  0  0  0
    1.9158    0.7266   -1.2549 C   0  0
    1.4612    2.1887   -1.2352 C   0  0
    1.3393    2.8701   -2.4527 C   0  0
    0.8469    4.1694   -2.5122 C   0  0
    0.4466    4.8040   -1.3445 C   0  0
    0.5678    4.1439   -0.1259 C   0  0
    1.1127    2.8537   -0.0324 C   0  0
    1.2194    2.1472    1.3355 C   0  0  1  0  0  0
    1.8149    0.7022    1.2577 C   0  0  1  0  0  0
    1.5777   -0.1310    2.5539 C   0  0
    2.1468    0.6620    3.7281 C   0  0
    2.6295    0.3656    4.9913 C   0  0
    3.0736    1.5203    5.6066 N   0  0
    2.9022    2.6045    4.7660 C   0  0
    3.2093    3.9640    4.8588 C   0  0
    2.9048    4.7489    3.7412 C   0  0
    2.2958    4.2207    2.5973 C   0  0
    1.9337    2.8674    2.5005 C   0  0
    2.2882    2.0816    3.6108 C   0  0
   -0.6711    0.6740   -0.1247 H   0  0
   -0.4413   -0.9033    0.7163 H   0  0
   -0.3190   -0.8180   -1.0656 H   0  0
    3.0031    0.6410   -1.2259 H   0  0
    1.5451    0.1882   -2.1290 H   0  0
    1.6137    2.3761   -3.3737 H   0  0
    0.7547    4.6732   -3.4632 H   0  0
    0.0356    5.8021   -1.3821 H   0  0
    0.2190    4.6476    0.7633 H   0  0
    0.1837    2.0405    1.6636 H   0  0
    2.8969    0.7729    1.1172 H   0  0
    0.5143   -0.3205    2.6992 H   0  0
    2.0445   -1.1134    2.4717 H   0  0
    2.7135   -0.5802    5.5067 H   0  0
    3.4793    1.5191    6.5317 H   0  0
    3.6811    4.3901    5.7320 H   0  0
    3.1499    5.8009    3.7608 H   0  0
    2.1135    4.9012    1.7827 H   0  0
    1.8294   -0.9366   -0.0167 H   0  0
  1  2  1  0
  1 22  1  0
  1 23  1  0
  1 24  1  0
  2  3  1  0
  2 11  1  0
  2 40  1  0
  3  4  1  0
  3 25  1  0
  3 26  1  0
  4  5  2  0
  4  9  1  0
  5  6  1  0
  5 27  1  0
  6  7  2  0
  6 28  1  0
  7  8  1  0
  7 29  1  0
  8  9  2  0
  8 30  1  0
  9 10  1  0
 10 11  1  0
 10 20  1  0
 10 31  1  0
 11 12  1  0
 11 32  1  0
 12 13  1  0
 12 33  1  0
 12 34  1  0
 13 14  2  0
 13 21  1  0
 14 15  1  0
 14 35  1  0
 15 16  1  0
 15 36  1  0
 16 17  2  0
 16 21  1  0
 17 18  1  0
 17 37  1  0
 18 19  2  0
 18 38  1  0
 19 20  1  0
 19 39  1  0
 20 21  2  0
M  CHG  1   2   1
M  END
> <Mol2_MolInfo_Name>
7897

> <Mol2_MolInfo_Type>
SMALL

> <Mol2_MolInfo_Charge>
USER_CHARGES

> <Mol2_Substructures>
     1 UNK         1 GROUP             0       ****    0 ROOT    

> <Name>
7897

$$$$
7897
  SciTegic06232017503D

 40 44  0  0  0  0            999 V2000
   -0.1076   -0.1368    0.1297 C   0  0
    1.4319   -0.0441    0.0427 N   0  3  2  0  0  0
    1.9526    0.7564    1.2580 C   0  0
    3.4786    0.7595    1.2427 C   0  0
    4.1702    0.8429    2.4578 C   0  0
    5.5581    0.7664    2.5087 C   0  0
    6.2780    0.5843    1.3357 C   0  0
    5.6050    0.5054    0.1205 C   0  0
    4.2097    0.6325    0.0371 C   0  0
    3.4908    0.5288   -1.3241 C   0  0  1  0  0  0
    1.9291    0.6490   -1.2483 C   0  0  1  0  0  0
    1.2507    0.1204   -2.5567 C   0  0
    1.8359    0.8871   -3.7406 C   0  0
    1.4201    1.2223   -5.0181 C   0  0
    2.3774    2.0073   -5.6320 N   0  0
    3.4443    2.2132   -4.7769 C   0  0
    4.6322    2.9438   -4.8611 C   0  0
    5.4545    2.9281   -3.7288 C   0  0
    5.1320    2.1991   -2.5781 C   0  0
    3.9662    1.4213   -2.4898 C   0  0
    3.1289    1.4832   -3.6145 C   0  0
   -0.5166    0.8655   -0.0080 H   0  0
   -0.3589   -0.5411    1.1111 H   0  0
   -0.4408   -0.8245   -0.6471 H   0  0
    1.5323    1.7632    1.2141 H   0  0
    1.5590    0.2508    2.1417 H   0  0
    3.6209    0.9505    3.3820 H   0  0
    6.0715    0.8255    3.4572 H   0  0
    7.3539    0.4958    1.3667 H   0  0
    6.1845    0.3334   -0.7743 H   0  0
    3.7022   -0.4935   -1.6447 H   0  0
    1.6496    1.6976   -1.1122 H   0  0
    1.4157   -0.9533   -2.6558 H   0  0
    0.1695    0.2519   -2.5291 H   0  0
    0.5071    0.9853   -5.5447 H   0  0
    2.2589    2.3746   -6.5653 H   0  0
    4.8970    3.5137   -5.7395 H   0  0
    6.3708    3.5003   -3.7422 H   0  0
    5.8200    2.2577   -1.7510 H   0  0
    1.8189   -0.9768    0.0775 H   0  0
  1  2  1  0
  1 22  1  0
  1 23  1  0
  1 24  1  0
  2  3  1  0
  2 11  1  0
  2 40  1  0
  3  4  1  0
  3 25  1  0
  3 26  1  0
  4  5  2  0
  4  9  1  0
  5  6  1  0
  5 27  1  0
  6  7  2  0
  6 28  1  0
  7  8  1  0
  7 29  1  0
  8  9  2  0
  8 30  1  0
  9 10  1  0
 10 11  1  0
 10 20  1  0
 10 31  1  0
 11 12  1  0
 11 32  1  0
 12 13  1  0
 12 33  1  0
 12 34  1  0
 13 14  2  0
 13 21  1  0
 14 15  1  0
 14 35  1  0
 15 16  1  0
 15 36  1  0
 16 17  2  0
 16 21  1  0
 17 18  1  0
 17 37  1  0
 18 19  2  0
 18 38  1  0
 19 20  1  0
 19 39  1  0
 20 21  2  0
M  CHG  1   2   1
M  END
> <Mol2_MolInfo_Name>
7897

> <Mol2_MolInfo_Type>
SMALL

> <Mol2_MolInfo_Charge>
USER_CHARGES

> <Mol2_Substructures>
     1 UNK         1 GROUP             0       ****    0 ROOT    

> <Name>
7897

$$$$
7897
  SciTegic06232017503D

 39 43  0  0  0  0            999 V2000
    0.0254    0.0823    0.4377 C   0  0
    1.4169   -0.0369   -0.0003 N   0  0
    1.8668   -1.4321   -0.0715 C   0  0
    1.2753   -2.2111   -1.2448 C   0  0
    1.1072   -3.5975   -1.1558 C   0  0
    0.5136   -4.3177   -2.1880 C   0  0
    0.0654   -3.6511   -3.3218 C   0  0
    0.2360   -2.2732   -3.4251 C   0  0
    0.8763   -1.5344   -2.4190 C   0  0
    1.0532   -0.0060   -2.5279 C   0  0  1  0  0  0
    1.7241    0.6469   -1.2620 C   0  0  1  0  0  0
    1.5863    2.2009   -1.2303 C   0  0
    2.1267    2.7564   -2.5462 C   0  0
    2.6590    3.9610   -2.9730 C   0  0
    3.0372    3.8641   -4.2981 N   0  0
    2.7717    2.5950   -4.7776 C   0  0
    2.9835    1.9554   -6.0013 C   0  0
    2.5974    0.6127   -6.0772 C   0  0
    2.0028   -0.0579   -5.0024 C   0  0
    1.7408    0.5781   -3.7786 C   0  0
    2.1715    1.9125   -3.7008 C   0  0
   -0.2479    1.1269    0.5853 H   0  0
   -0.1202   -0.4255    1.3918 H   0  0
   -0.6686   -0.3513   -0.2833 H   0  0
    2.9557   -1.4721   -0.1251 H   0  0
    1.5893   -1.9201    0.8644 H   0  0
    1.4261   -4.1209   -0.2661 H   0  0
    0.3840   -5.3864   -2.0997 H   0  0
   -0.4194   -4.1984   -4.1168 H   0  0
   -0.1446   -1.7718   -4.3025 H   0  0
    0.0310    0.3757   -2.5605 H   0  0
    2.7965    0.4674   -1.3778 H   0  0
    0.5443    2.4881   -1.0885 H   0  0
    2.1324    2.6150   -0.3820 H   0  0
    2.8201    4.8856   -2.4382 H   0  0
    3.4639    4.6318   -4.7966 H   0  0
    3.4418    2.4561   -6.8414 H   0  0
    2.7640    0.0736   -6.9984 H   0  0
    1.7484   -1.0941   -5.1499 H   0  0
  1  2  1  0
  1 22  1  0
  1 23  1  0
  1 24  1  0
  2  3  1  0
  2 11  1  0
  3  4  1  0
  3 25  1  0
  3 26  1  0
  4  5  2  0
  4  9  1  0
  5  6  1  0
  5 27  1  0
  6  7  2  0
  6 28  1  0
  7  8  1  0
  7 29  1  0
  8  9  2  0
  8 30  1  0
  9 10  1  0
 10 11  1  0
 10 20  1  0
 10 31  1  0
 11 12  1  0
 11 32  1  0
 12 13  1  0
 12 33  1  0
 12 34  1  0
 13 14  2  0
 13 21  1  0
 14 15  1  0
 14 35  1  0
 15 16  1  0
 15 36  1  0
 16 17  2  0
 16 21  1  0
 17 18  1  0
 17 37  1  0
 18 19  2  0
 18 38  1  0
 19 20  1  0
 19 39  1  0
 20 21  2  0
M  END
> <Mol2_MolInfo_Name>
7897

> <Mol2_MolInfo_Type>
SMALL

> <Mol2_MolInfo_Charge>
USER_CHARGES

> <Mol2_Substructures>
     1 UNK         1 GROUP             0       ****    0 ROOT    

> <Name>
7897

$$$$
8081
  SciTegic06232017503D

 53 55  0  0  0  0            999 V2000
   -6.5329    1.5909   -1.8943 C   0  0
   -5.7358    2.6441   -1.3597 O   0  0
   -4.4828    2.2527   -0.7887 C   0  0  2  0  0  0
   -4.0230    3.4439    0.0706 C   0  0
   -3.4497    1.9331   -1.9038 C   0  0
   -3.6024    2.4545   -3.0122 O   0  0
   -2.5258    0.9586   -1.6887 N   0  0
   -1.5558    0.6191   -2.7436 C   0  0
   -0.2454    1.4015   -2.4773 C   0  0
    0.2792    1.1333   -1.1129 N   0  0
   -0.7417    1.4187   -0.0706 C   0  0
   -2.0454    0.6295   -0.3383 C   0  0
    1.6781    0.9470   -0.8391 C   0  0
    2.0508    0.8667    0.4651 N   0  0
    3.3652    0.6802    0.7390 C   0  0
    3.6844    0.6111    2.0957 N   0  0
    4.3603    0.5612   -0.2793 C   0  0
    5.7465    0.3641   -0.0507 C   0  0
    6.6495    0.2575   -1.1235 C   0  0
    8.0097    0.0627   -0.9535 O   0  0
    8.5503   -0.0437    0.3594 C   0  0
    6.1881    0.3467   -2.4460 C   0  0  3  0  0  0
    7.1387    0.2339   -3.4460 O   0  0
    6.7398    0.3105   -4.8108 C   0  0
    4.8219    0.5414   -2.7033 C   0  0
    3.9180    0.6473   -1.6302 C   0  0
    2.5711    0.8384   -1.8439 N   0  0
   -7.4672    2.0029   -2.2754 H   0  0
   -6.7817    0.8556   -1.1279 H   0  0
   -6.0364    1.0796   -2.7195 H   0  0
   -4.6519    1.3890   -0.1438 H   0  0
   -3.1049    3.2202    0.6137 H   0  0
   -4.7793    3.7003    0.8132 H   0  0
   -3.8445    4.3348   -0.5338 H   0  0
   -1.3234   -0.4343   -2.5800 H   0  0
   -1.9364    0.6456   -3.7657 H   0  0
    0.4926    1.1675   -3.2439 H   0  0
   -0.4204    2.4761   -2.5508 H   0  0
   -0.3763    1.2160    0.9357 H   0  0
   -0.9323    2.4924   -0.0969 H   0  0
   -2.7719    0.5525    0.4702 H   0  0
   -1.7324   -0.4122   -0.4274 H   0  0
    4.6438    0.4739    2.3782 H   0  0
    2.9475    0.7002    2.7807 H   0  0
    6.0904    0.2980    0.9702 H   0  0
    9.6264   -0.2023    0.2922 H   0  0
    8.1262   -0.8910    0.9005 H   0  0
    8.3873    0.8690    0.9344 H   0  0
    7.6180    0.2074   -5.4480 H   0  0
    6.2780    1.2719   -5.0406 H   0  0
    6.0479   -0.4921   -5.0708 H   0  0
    4.4360    0.6139   -3.7090 H   0  0
    2.2305    0.9021   -2.7921 H   0  0
  1  2  1  0
  1 28  1  0
  1 29  1  0
  1 30  1  0
  2  3  1  0
  3  4  1  0
  3  5  1  0
  3 31  1  0
  4 32  1  0
  4 33  1  0
  4 34  1  0
  5  6  2  0
  5  7  1  0
  7  8  1  0
  7 12  1  0
  8  9  1  0
  8 35  1  0
  8 36  1  0
  9 10  1  0
  9 37  1  0
  9 38  1  0
 10 11  1  0
 10 13  1  0
 11 12  1  0
 11 39  1  0
 11 40  1  0
 12 41  1  0
 12 42  1  0
 13 14  2  0
 13 27  1  0
 14 15  1  0
 15 16  1  0
 15 17  2  0
 16 43  1  0
 16 44  1  0
 17 18  1  0
 17 26  1  0
 18 19  2  0
 18 45  1  0
 19 20  1  0
 19 22  1  0
 20 21  1  0
 21 46  1  0
 21 47  1  0
 21 48  1  0
 22 23  1  0
 22 25  1  0
 23 24  1  0
 24 49  1  0
 24 50  1  0
 24 51  1  0
 25 26  2  0
 25 52  1  0
 26 27  1  0
 27 53  1  0
M  END
> <Mol2_MolInfo_Name>
8081

> <Mol2_MolInfo_Type>
SMALL

> <Mol2_MolInfo_Charge>
USER_CHARGES

> <Mol2_Substructures>
     1 UNK         1 GROUP             0       ****    0 ROOT    

> <Name>
8081

$$$$
8081
  SciTegic06232017503D

 53 55  0  0  0  0            999 V2000
   -6.2347    1.9583    1.8599 C   0  0
   -5.2211    2.9589    1.8198 O   0  0
   -4.0119    2.5977    1.1440 C   0  0  1  0  0  0
   -3.2816    3.9214    0.8551 C   0  0
   -3.1475    1.6619    2.0325 C   0  0
   -3.3042    1.7055    3.2561 O   0  0
   -2.3864    0.7042    1.4379 N   0  0
   -1.5834   -0.2158    2.2611 C   0  0
   -0.1378    0.3347    2.3467 C   0  0
    0.4438    0.5500    0.9944 N   0  0
   -0.4203    1.4261    0.1633 C   0  0
   -1.8597    0.8651    0.0743 C   0  0
    1.8033    0.2399    0.6438 C   0  0
    2.5401   -0.4457    1.5570 N   0  0
    3.8201   -0.7559    1.2360 C   0  0
    4.5240   -1.4575    2.2159 N   0  0
    4.4152   -0.3962   -0.0120 C   0  0
    5.7469   -0.6947   -0.4004 C   0  0
    6.2423   -0.2954   -1.6545 C   0  0
    7.5326   -0.5618   -2.0799 O   0  0
    8.4230   -1.2790   -1.2313 C   0  0
    5.4191    0.4089   -2.5470 C   0  0  3  0  0  0
    5.9797    0.7660   -3.7612 O   0  0
    5.2006    1.4797   -4.7156 C   0  0
    4.0966    0.7173   -2.1910 C   0  0
    3.6007    0.3185   -0.9360 C   0  0
    2.3091    0.6031   -0.5526 N   0  0
   -7.1067    2.3486    2.3842 H   0  0
   -5.9061    1.0620    2.3869 H   0  0
   -6.5500    1.6755    0.8548 H   0  0
   -4.2733    2.1189    0.1989 H   0  0
   -2.3704    3.7637    0.2780 H   0  0
   -3.0087    4.4429    1.7740 H   0  0
   -3.9147    4.5934    0.2751 H   0  0
   -2.0369   -0.5261    3.2040 H   0  0
   -1.5288   -1.1372    1.6793 H   0  0
   -0.1246    1.2968    2.8614 H   0  0
    0.4784   -0.3321    2.9488 H   0  0
   -0.4212    2.4110    0.6327 H   0  0
   -0.0110    1.5816   -0.8344 H   0  0
   -1.7442   -0.1619   -0.2763 H   0  0
   -2.5180    1.2704   -0.6937 H   0  0
    5.4831   -1.7249    2.0496 H   0  0
    4.0613   -1.6897    3.0831 H   0  0
    6.3708   -1.2370    0.2936 H   0  0
    9.3844   -1.3909   -1.7326 H   0  0
    8.0475   -2.2796   -1.0119 H   0  0
    8.6003   -0.7478   -0.2948 H   0  0
    5.8053    1.6700   -5.6021 H   0  0
    4.8747    2.4452   -4.3260 H   0  0
    4.3276    0.9055   -5.0296 H   0  0
    3.4390    1.2575   -2.8556 H   0  0
    1.7101    1.1081   -1.1892 H   0  0
  1  2  1  0
  1 28  1  0
  1 29  1  0
  1 30  1  0
  2  3  1  0
  3  4  1  0
  3  5  1  0
  3 31  1  0
  4 32  1  0
  4 33  1  0
  4 34  1  0
  5  6  2  0
  5  7  1  0
  7  8  1  0
  7 12  1  0
  8  9  1  0
  8 35  1  0
  8 36  1  0
  9 10  1  0
  9 37  1  0
  9 38  1  0
 10 11  1  0
 10 13  1  0
 11 12  1  0
 11 39  1  0
 11 40  1  0
 12 41  1  0
 12 42  1  0
 13 14  2  0
 13 27  1  0
 14 15  1  0
 15 16  1  0
 15 17  2  0
 16 43  1  0
 16 44  1  0
 17 18  1  0
 17 26  1  0
 18 19  2  0
 18 45  1  0
 19 20  1  0
 19 22  1  0
 20 21  1  0
 21 46  1  0
 21 47  1  0
 21 48  1  0
 22 23  1  0
 22 25  1  0
 23 24  1  0
 24 49  1  0
 24 50  1  0
 24 51  1  0
 25 26  2  0
 25 52  1  0
 26 27  1  0
 27 53  1  0
M  END
> <Mol2_MolInfo_Name>
8081

> <Mol2_MolInfo_Type>
SMALL

> <Mol2_MolInfo_Charge>
USER_CHARGES

> <Mol2_Substructures>
     1 UNK         1 GROUP             0       ****    0 ROOT    

> <Name>
8081

$$$$
8081
  SciTegic06232017503D

 52 54  0  0  0  0            999 V2000
   -6.5004    2.0012   -1.8936 C   0  0
   -5.5706    2.9955   -1.4723 O   0  0
   -4.3701    2.5106   -0.8605 C   0  0  2  0  0  0
   -3.7535    3.7144   -0.1245 C   0  0
   -3.3930    1.9493   -1.9306 C   0  0
   -3.5210    2.3406   -3.0942 O   0  0
   -2.5161    0.9623   -1.5944 N   0  0
   -1.6642    0.3336   -2.6098 C   0  0
   -0.1990    0.7580   -2.3709 C   0  0
    0.3061    0.6174   -0.9887 N   0  0
   -0.6779    1.0539    0.0249 C   0  0
   -2.1472    0.6379   -0.2123 C   0  0
    1.6798    0.5919   -0.7101 C   0  0
    2.0632    0.6413    0.5948 N   0  0
    3.3870    0.5776    0.8628 C   0  0
    3.7238    0.6456    2.2152 N   0  0
    4.3720    0.4487   -0.1561 C   0  0
    5.7715    0.3820    0.0603 C   0  0
    6.6608    0.2517   -1.0183 C   0  0
    8.0354    0.1864   -0.8662 O   0  0
    8.6051    0.2624    0.4364 C   0  0
    6.1667    0.1812   -2.3278 C   0  0
    7.1011    0.0487   -3.3407 O   0  0
    6.6662   -0.0322   -4.6941 C   0  0
    4.7838    0.2465   -2.5601 C   0  0
    3.8751    0.3826   -1.4884 C   0  0
    2.5407    0.4466   -1.7574 N   0  0
   -7.3745    2.4856   -2.3283 H   0  0
   -6.8394    1.3956   -1.0521 H   0  0
   -6.0788    1.3389   -2.6506 H   0  0
   -4.6433    1.7435   -0.1342 H   0  0
   -2.8424    3.4424    0.4090 H   0  0
   -4.4499    4.1153    0.6127 H   0  0
   -3.5048    4.5239   -0.8129 H   0  0
   -1.7404   -0.7491   -2.5030 H   0  0
   -1.9714    0.5599   -3.6319 H   0  0
    0.4335    0.2223   -3.0791 H   0  0
   -0.1355    1.8245   -2.5941 H   0  0
   -0.3872    0.7291    1.0241 H   0  0
   -0.6478    2.1444   -0.0022 H   0  0
   -2.7849    1.0931    0.5425 H   0  0
   -2.2348   -0.4405   -0.0755 H   0  0
    4.6938    0.5976    2.4912 H   0  0
    2.9886    0.7310    2.9023 H   0  0
    6.1337    0.4348    1.0755 H   0  0
    9.6903    0.1993    0.3583 H   0  0
    8.2715   -0.5626    1.0675 H   0  0
    8.3642    1.2084    0.9238 H   0  0
    7.5347   -0.1308   -5.3452 H   0  0
    6.1280    0.8675   -4.9963 H   0  0
    6.0302   -0.9034   -4.8589 H   0  0
    4.3800    0.1966   -3.5605 H   0  0
  1  2  1  0
  1 28  1  0
  1 29  1  0
  1 30  1  0
  2  3  1  0
  3  4  1  0
  3  5  1  0
  3 31  1  0
  4 32  1  0
  4 33  1  0
  4 34  1  0
  5  6  2  0
  5  7  1  0
  7  8  1  0
  7 12  1  0
  8  9  1  0
  8 35  1  0
  8 36  1  0
  9 10  1  0
  9 37  1  0
  9 38  1  0
 10 11  1  0
 10 13  1  0
 11 12  1  0
 11 39  1  0
 11 40  1  0
 12 41  1  0
 12 42  1  0
 13 14  2  0
 13 27  1  0
 14 15  1  0
 15 16  1  0
 15 17  2  0
 16 43  1  0
 16 44  1  0
 17 18  1  0
 17 26  1  0
 18 19  2  0
 18 45  1  0
 19 20  1  0
 19 22  1  0
 20 21  1  0
 21 46  1  0
 21 47  1  0
 21 48  1  0
 22 23  1  0
 22 25  2  0
 23 24  1  0
 24 49  1  0
 24 50  1  0
 24 51  1  0
 25 26  1  0
 25 52  1  0
 26 27  2  0
M  END
> <Mol2_MolInfo_Name>
8081

> <Mol2_MolInfo_Type>
SMALL

> <Mol2_MolInfo_Charge>
USER_CHARGES

> <Mol2_Substructures>
     1 UNK         1 GROUP             0       ****    0 ROOT    

> <Name>
8081

$$$$
8081
  SciTegic06232017503D

 52 54  0  0  0  0            999 V2000
   -6.5148    0.5674   -2.6363 C   0  0
   -5.5866   -0.2805   -3.3069 O   0  0
   -4.3746   -0.5634   -2.5990 C   0  0  1  0  0  0
   -3.7595   -1.7951   -3.2884 C   0  0
   -3.4066    0.6509   -2.6552 C   0  0
   -3.5519    1.4656   -3.5710 O   0  0
   -2.5150    0.8533   -1.6451 N   0  0
   -2.1368   -0.1782   -0.6729 C   0  0
   -0.6658   -0.5833   -0.9179 C   0  0
    0.3110    0.5187   -1.0487 N   0  0
   -0.2013    1.6372   -1.8679 C   0  0
   -1.6675    2.0510   -1.6170 C   0  0
    1.6857    0.3016   -0.8799 C   0  0
    2.0745   -0.8414   -0.2518 N   0  0
    3.3988   -1.0294   -0.0540 C   0  0
    3.7413   -2.2226    0.5834 N   0  0
    4.3787   -0.0821   -0.4626 C   0  0
    5.7785   -0.2243   -0.2891 C   0  0
    6.6628    0.7735   -0.7287 C   0  0
    8.0375    0.6850   -0.5899 O   0  0
    8.6122   -0.4681    0.0162 C   0  0
    6.1635    1.9298   -1.3433 C   0  0
    7.0938    2.8719   -1.7483 O   0  0
    6.6541    4.0737   -2.3726 C   0  0
    4.7801    2.0871   -1.5227 C   0  0
    3.8764    1.0918   -1.0919 C   0  0
    2.5413    1.2810   -1.2893 N   0  0
   -7.4013    0.6956   -3.2571 H   0  0
   -6.1009    1.5574   -2.4431 H   0  0
   -6.8328    0.1321   -1.6880 H   0  0
   -4.6326   -0.8170   -1.5696 H   0  0
   -2.8416   -2.1200   -2.7979 H   0  0
   -3.5227   -1.5954   -4.3347 H   0  0
   -4.4518   -2.6373   -3.2653 H   0  0
   -2.2258    0.2417    0.3298 H   0  0
   -2.7671   -1.0647   -0.6897 H   0  0
   -0.3698   -1.2874   -0.1401 H   0  0
   -0.6348   -1.1038   -1.8766 H   0  0
    0.4284    2.5215   -1.7679 H   0  0
   -0.1393    1.2900   -2.9007 H   0  0
   -1.9793    2.8173   -2.3283 H   0  0
   -1.7432    2.5060   -0.6287 H   0  0
    4.7118   -2.4279    0.7706 H   0  0
    3.0096   -2.8619    0.8582 H   0  0
    6.1445   -1.1200    0.1886 H   0  0
    9.6970   -0.3640    0.0310 H   0  0
    8.3765   -1.3743   -0.5439 H   0  0
    8.2784   -0.5860    1.0481 H   0  0
    7.5199    4.6884   -2.6177 H   0  0
    6.0132    4.6572   -1.7100 H   0  0
    6.1204    3.8709   -3.3023 H   0  0
    4.3725    2.9688   -1.9948 H   0  0
  1  2  1  0
  1 28  1  0
  1 29  1  0
  1 30  1  0
  2  3  1  0
  3  4  1  0
  3  5  1  0
  3 31  1  0
  4 32  1  0
  4 33  1  0
  4 34  1  0
  5  6  2  0
  5  7  1  0
  7  8  1  0
  7 12  1  0
  8  9  1  0
  8 35  1  0
  8 36  1  0
  9 10  1  0
  9 37  1  0
  9 38  1  0
 10 11  1  0
 10 13  1  0
 11 12  1  0
 11 39  1  0
 11 40  1  0
 12 41  1  0
 12 42  1  0
 13 14  2  0
 13 27  1  0
 14 15  1  0
 15 16  1  0
 15 17  2  0
 16 43  1  0
 16 44  1  0
 17 18  1  0
 17 26  1  0
 18 19  2  0
 18 45  1  0
 19 20  1  0
 19 22  1  0
 20 21  1  0
 21 46  1  0
 21 47  1  0
 21 48  1  0
 22 23  1  0
 22 25  2  0
 23 24  1  0
 24 49  1  0
 24 50  1  0
 24 51  1  0
 25 26  1  0
 25 52  1  0
 26 27  2  0
M  END
> <Mol2_MolInfo_Name>
8081

> <Mol2_MolInfo_Type>
SMALL

> <Mol2_MolInfo_Charge>
USER_CHARGES

> <Mol2_Substructures>
     1 UNK         1 GROUP             0       ****    0 ROOT    

> <Name>
8081

$$$$
8432
  SciTegic06232017502D

 13 13  0  0  0  0            999 V2000
   -2.7396   -2.2890    0.0000 O   0  5
   -2.0901   -1.1962    0.0000 C   0  0
   -2.7793    0.0260    0.0000 C   0  0
   -4.8770    0.1308    0.0000 I   0  0
   -2.0668    1.2234    0.0000 C   0  0
   -0.6741    1.2190    0.0000 C   0  0
    0.3380    3.0552    0.0000 I   0  0
    0.0187    0.0041    0.0000 C   0  0
    1.3905    0.0082    0.0000 O   0  0
   -0.6849   -1.2082    0.0000 C   0  0
    0.3818   -3.0252    0.0000 I   0  0
   -2.5990    2.1633    0.0000 H   0  0
    1.7534    0.8968    0.0000 H   0  0
  1  2  1  0
  2  3  2  0
  2 10  1  0
  3  4  1  0
  3  5  1  0
  5  6  2  0
  5 12  1  0
  6  7  1  0
  6  8  1  0
  8  9  1  0
  8 10  2  0
  9 13  1  0
 10 11  1  0
M  CHG  1   1  -1
M  END
> <Mol2_MolInfo_Name>
8432

> <Mol2_MolInfo_Type>
SMALL

> <Mol2_MolInfo_Charge>
USER_CHARGES

> <Mol2_Substructures>
     1 UNK         1 GROUP             0       ****    0 ROOT    

> <Name>
8432

$$$$
8837
  SciTegic06232017503D

 24 24  0  0  0  0            999 V2000
   -2.0485    1.4561    0.0298 N   0  3
   -0.5162    1.4348    0.0983 C   0  0
    0.0189   -0.0099   -0.0022 C   0  0  2  0  0  0
   -0.5440   -0.8082    1.0255 O   0  0
    1.5466   -0.0245    0.0125 C   0  0
    2.2530   -0.0956   -1.1932 C   0  0
    3.6474   -0.0963   -1.1967 C   0  0
    4.3535   -0.0229    0.0049 C   0  0
    5.7255   -0.0231   -0.0251 O   0  0
    3.6563    0.0522    1.2179 C   0  0
    4.3242    0.1288    2.4144 O   0  0
    2.2597    0.0523    1.2166 C   0  0
   -2.3883    2.4049    0.0954 H   0  0
   -2.4334    0.9172    0.7928 H   0  0
   -0.2105    2.0567   -0.7440 H   0  0
   -0.2643    1.9279    1.0382 H   0  0
   -0.3123   -0.4415   -0.9489 H   0  0
   -0.2866   -1.7221    0.8783 H   0  0
    1.7245   -0.1484   -2.1341 H   0  0
    4.1772   -0.1525   -2.1368 H   0  0
    6.0839   -0.0746   -0.9141 H   0  0
    3.7396    0.1747    3.1741 H   0  0
    1.7276    0.1164    2.1552 H   0  0
   -2.3636    1.0552   -0.8420 H   0  0
  1  2  1  0
  1 13  1  0
  1 14  1  0
  1 24  1  0
  2  3  1  0
  2 15  1  0
  2 16  1  0
  3  4  1  0
  3  5  1  0
  3 17  1  0
  4 18  1  0
  5  6  2  0
  5 12  1  0
  6  7  1  0
  6 19  1  0
  7  8  2  0
  7 20  1  0
  8  9  1  0
  8 10  1  0
  9 21  1  0
 10 11  1  0
 10 12  2  0
 11 22  1  0
 12 23  1  0
M  CHG  1   1   1
M  END
> <Mol2_MolInfo_Name>
8837

> <Mol2_MolInfo_Type>
SMALL

> <Mol2_MolInfo_Charge>
USER_CHARGES

> <Mol2_Substructures>
     1 UNK         1 GROUP             0       ****    0 ROOT    

> <Name>
8837

$$$$
9052
  SciTegic06232017503D

 46 49  0  0  0  0            999 V2000
   -4.7468    0.9230   -0.6276 O   0  0
   -4.1550    0.3880    0.3137 C   0  0
   -4.8131   -0.1183    1.3958 N   0  0
   -4.1816   -0.2958    2.7205 C   0  0
   -4.5456   -1.7001    3.2462 C   0  0
   -6.0740   -1.8431    3.3107 N   0  3
   -6.7036   -1.5903    1.9310 C   0  0
   -6.2896   -0.2010    1.3948 C   0  0
   -2.6473    0.2774    0.2335 C   0  0
   -1.9028    1.3489   -0.2722 C   0  0
   -0.5177    1.2583   -0.3761 C   0  0
    0.1488    0.0920    0.0079 C   0  0
    1.6207    0.0463   -0.1240 C   0  0
    2.4104   -1.0419   -0.0134 C   0  0
    3.8598   -1.0891   -0.1289 C   0  0
    4.6154   -0.0280   -0.3059 N   0  0
    5.8969   -0.4260   -0.3679 N   0  0
    6.0151   -1.7905   -0.2324 C   0  0
    7.1229   -2.6447   -0.2336 C   0  0
    6.8661   -4.0070   -0.0694 C   0  0
    5.5710   -4.4967    0.0899 C   0  0
    4.4710   -3.6393    0.0915 C   0  0
    4.6874   -2.2606   -0.0725 C   0  0
   -0.5967   -0.9911    0.4889 C   0  0
   -1.9822   -0.9017    0.5947 C   0  0
   -3.1047   -0.1322    2.7252 H   0  0
   -4.5843    0.4574    3.3994 H   0  0
   -4.1680   -2.5091    2.6186 H   0  0
   -4.1974   -1.8572    4.2674 H   0  0
   -6.3196   -2.7680    3.6353 H   0  0
   -6.3987   -2.4080    1.2754 H   0  0
   -7.7799   -1.6578    2.0912 H   0  0
   -6.7030    0.5785    2.0365 H   0  0
   -6.7151   -0.0559    0.4003 H   0  0
   -2.3903    2.2634   -0.5805 H   0  0
    0.0351    2.1032   -0.7612 H   0  0
    2.0993    0.9960   -0.3194 H   0  0
    1.9675   -2.0072    0.1797 H   0  0
    6.6353    0.2499   -0.5009 H   0  0
    8.1311   -2.2772   -0.3554 H   0  0
    7.6936   -4.7014   -0.0656 H   0  0
    5.4172   -5.5587    0.2139 H   0  0
    3.4734   -4.0341    0.2157 H   0  0
   -0.1161   -1.9105    0.7870 H   0  0
   -2.5313   -1.7600    0.9533 H   0  0
   -6.4458   -1.1809    3.9771 H   0  0
  1  2  2  0
  2  3  1  0
  2  9  1  0
  3  4  1  0
  3  8  1  0
  4  5  1  0
  4 26  1  0
  4 27  1  0
  5  6  1  0
  5 28  1  0
  5 29  1  0
  6  7  1  0
  6 30  1  0
  6 46  1  0
  7  8  1  0
  7 31  1  0
  7 32  1  0
  8 33  1  0
  8 34  1  0
  9 10  2  0
  9 25  1  0
 10 11  1  0
 10 35  1  0
 11 12  2  0
 11 36  1  0
 12 13  1  0
 12 24  1  0
 13 14  2  0
 13 37  1  0
 14 15  1  0
 14 38  1  0
 15 16  2  0
 15 23  1  0
 16 17  1  0
 17 18  1  0
 17 39  1  0
 18 19  2  0
 18 23  1  0
 19 20  1  0
 19 40  1  0
 20 21  2  0
 20 41  1  0
 21 22  1  0
 21 42  1  0
 22 23  2  0
 22 43  1  0
 24 25  2  0
 24 44  1  0
 25 45  1  0
M  CHG  1   6   1
M  END
> <Mol2_MolInfo_Name>
9052

> <Mol2_MolInfo_Type>
SMALL

> <Mol2_MolInfo_Charge>
USER_CHARGES

> <Mol2_Substructures>
     1 UNK         1 GROUP             0       ****    0 ROOT    

> <Name>
9052

$$$$
9384
  SciTegic06232017503D

 57 62  0  0  0  0            999 V2000
   -6.3595    3.9526    3.9112 C   0  0
   -6.4951    3.2631    2.5402 N   0  3  2  0  0  0
   -6.3790    1.7333    2.6776 C   0  0
   -6.4940    1.0905    1.2771 C   0  0
   -5.4687    1.5812    0.3331 N   0  0
   -5.5943    3.0471    0.2093 C   0  0
   -5.4404    3.7942    1.5521 C   0  0
   -4.2383    0.9222    0.2320 C   0  0
   -4.2073   -0.4826    0.1650 C   0  0
   -3.0194   -1.2055    0.0548 C   0  0
   -1.8169   -0.4939    0.0086 C   0  0
   -0.5334   -0.9627   -0.0873 N   0  0
    0.2286    0.1090   -0.0868 C   0  0
   -0.5153    1.2681   -0.0053 N   0  0
   -1.8427    0.9161    0.0608 C   0  0
   -3.0304    1.6448    0.1599 C   0  0
    1.7287    0.0867   -0.1617 C   0  0
    2.4030   -1.1321   -0.3374 C   0  0
    3.7946   -1.2064   -0.4046 C   0  0
    4.5256   -0.0179   -0.2899 C   0  0
    5.8820    0.1733   -0.3192 N   0  0
    6.0531    1.4684   -0.1701 C   0  0
    4.8529    2.1360   -0.0424 N   0  0
    3.8420    1.2068   -0.1148 C   0  0
    2.4486    1.2882   -0.0482 C   0  0
    7.3898    2.1494   -0.1337 C   0  0
    8.5708    1.3949   -0.1185 C   0  0
    9.8115    2.0261   -0.0803 C   0  0
    9.8790    3.4170   -0.0595 C   0  0
   11.0992    4.0376   -0.0221 O   0  0
    8.7140    4.1805   -0.0767 C   0  0
    7.4740    3.5480   -0.1137 C   0  0
   -5.3691    3.7256    4.3095 H   0  0
   -7.1507    3.5573    4.5495 H   0  0
   -6.4921    5.0227    3.7466 H   0  0
   -5.4356    1.5044    3.1773 H   0  0
   -7.2212    1.4321    3.3021 H   0  0
   -6.4935    0.0056    1.3695 H   0  0
   -7.4614    1.3547    0.8460 H   0  0
   -4.9151    3.4414   -0.5469 H   0  0
   -6.5988    3.2318   -0.1757 H   0  0
   -5.6686    4.8532    1.4244 H   0  0
   -4.4545    3.6704    2.0043 H   0  0
   -5.1256   -1.0500    0.1771 H   0  0
   -3.0322   -2.2845    0.0037 H   0  0
   -2.9998    2.7227    0.2009 H   0  0
    1.8424   -2.0517   -0.4243 H   0  0
    4.2900   -2.1567   -0.5392 H   0  0
    1.9536    2.2378    0.0904 H   0  0
    8.5354    0.3150   -0.1332 H   0  0
   10.7157    1.4348   -0.0667 H   0  0
   11.0332    4.9951   -0.0131 H   0  0
    8.7661    5.2596   -0.0614 H   0  0
    6.5812    4.1558   -0.1279 H   0  0
   -7.4070    3.4668    2.1554 H   0  0
    4.7850    3.1352    0.0840 H   0  0
   -0.1042    2.1900    0.0054 H   0  0
  1  2  1  0
  1 33  1  0
  1 34  1  0
  1 35  1  0
  2  3  1  0
  2  7  1  0
  2 55  1  0
  3  4  1  0
  3 36  1  0
  3 37  1  0
  4  5  1  0
  4 38  1  0
  4 39  1  0
  5  6  1  0
  5  8  1  0
  6  7  1  0
  6 40  1  0
  6 41  1  0
  7 42  1  0
  7 43  1  0
  8  9  2  0
  8 16  1  0
  9 10  1  0
  9 44  1  0
 10 11  2  0
 10 45  1  0
 11 12  1  0
 11 15  1  0
 12 13  2  0
 13 14  1  0
 13 17  1  0
 14 15  1  0
 14 57  1  0
 15 16  2  0
 16 46  1  0
 17 18  2  0
 17 25  1  0
 18 19  1  0
 18 47  1  0
 19 20  2  0
 19 48  1  0
 20 21  1  0
 20 24  1  0
 21 22  2  0
 22 23  1  0
 22 26  1  0
 23 24  1  0
 23 56  1  0
 24 25  2  0
 25 49  1  0
 26 27  2  0
 26 32  1  0
 27 28  1  0
 27 50  1  0
 28 29  2  0
 28 51  1  0
 29 30  1  0
 29 31  1  0
 30 52  1  0
 31 32  2  0
 31 53  1  0
 32 54  1  0
M  CHG  1   2   1
M  END
> <Mol2_MolInfo_Name>
9384

> <Mol2_MolInfo_Type>
SMALL

> <Mol2_MolInfo_Charge>
USER_CHARGES

> <Mol2_Substructures>
     1 UNK         1 GROUP             0       ****    0 ROOT    

> <Name>
9384

$$$$
9384
  SciTegic06232017503D

 58 63  0  0  0  0            999 V2000
   -6.4918   -3.6721   -3.9723 C   0  0
   -6.5872   -3.0554   -2.5634 N   0  3  2  0  0  0
   -6.5174   -1.5181   -2.6286 C   0  0
   -6.5893   -0.9476   -1.1943 C   0  0
   -5.5142   -1.4561   -0.3165 N   0  0
   -5.5983   -2.9294   -0.2616 C   0  0
   -5.4794   -3.6045   -1.6454 C   0  0
   -4.3013   -0.7653   -0.2106 C   0  0
   -4.3084    0.6355   -0.0815 C   0  0
   -3.1458    1.3980    0.0449 C   0  0
   -1.9384    0.7015    0.0438 C   0  0
   -0.6220    1.1310    0.1443 N   0  0
    0.2316    0.0540    0.0904 C   0  0  1  0  0  0
   -0.5621   -1.0624   -0.0375 N   0  0
   -1.9017   -0.6952   -0.0700 C   0  0
   -3.0707   -1.4522   -0.1889 C   0  0
    1.7250    0.0927    0.1533 C   0  0
    2.4475   -1.0964    0.3272 C   0  0
    3.8418   -1.1091    0.3888 C   0  0
    4.5202    0.1109    0.2712 C   0  0
    5.8669    0.3622    0.2972 N   0  0
    5.9802    1.6639    0.1481 C   0  0
    4.7515    2.2779    0.0218 N   0  0
    3.7829    1.3049    0.0967 C   0  0
    2.3871    1.3247    0.0340 C   0  0
    7.2847    2.4050    0.1143 C   0  0
    8.4990    1.7054    0.0988 C   0  0
    9.7095    2.3929    0.0711 C   0  0
    9.7138    3.7856    0.0606 C   0  0
   10.9052    4.4607    0.0364 O   0  0
    8.5151    4.4949    0.0749 C   0  0
    7.3050    3.8063    0.1011 C   0  0
   -5.5289   -3.3908   -4.4023 H   0  0
   -7.3242   -3.2746   -4.5547 H   0  0
   -6.5806   -4.7533   -3.8567 H   0  0
   -5.6028   -1.2384   -3.1551 H   0  0
   -7.3931   -1.2109   -3.2025 H   0  0
   -6.6202    0.1397   -1.2361 H   0  0
   -7.5314   -1.2571   -0.7379 H   0  0
   -4.8806   -3.3436    0.4469 H   0  0
   -6.5819   -3.1599    0.1526 H   0  0
   -5.6747   -4.6746   -1.5620 H   0  0
   -4.5159   -3.4308   -2.1283 H   0  0
   -5.2446    1.1727   -0.0534 H   0  0
   -3.1900    2.4730    0.1442 H   0  0
   -0.2891    2.0791    0.2424 H   0  0
   -3.0107   -2.5259   -0.2797 H   0  0
    1.9254   -2.0380    0.4195 H   0  0
    4.3796   -2.0362    0.5237 H   0  0
    1.8471    2.2503   -0.1029 H   0  0
    8.5135    0.6251    0.1069 H   0  0
   10.6399    1.8436    0.0586 H   0  0
   10.7975    5.4145    0.0357 H   0  0
    8.5172    5.5753    0.0667 H   0  0
    6.3857    4.3732    0.1144 H   0  0
   -7.4770   -3.3037   -2.1533 H   0  0
    4.6402    3.2735   -0.1040 H   0  0
   -0.1763   -1.9935   -0.0984 H   0  0
  1  2  1  0
  1 33  1  0
  1 34  1  0
  1 35  1  0
  2  3  1  0
  2  7  1  0
  2 56  1  0
  3  4  1  0
  3 36  1  0
  3 37  1  0
  4  5  1  0
  4 38  1  0
  4 39  1  0
  5  6  1  0
  5  8  1  0
  6  7  1  0
  6 40  1  0
  6 41  1  0
  7 42  1  0
  7 43  1  0
  8  9  2  0
  8 16  1  0
  9 10  1  0
  9 44  1  0
 10 11  2  0
 10 45  1  0
 11 12  1  0
 11 15  1  0
 12 13  1  0
 12 46  1  0
 13 14  1  0
 13 17  1  0
 14 15  1  0
 14 58  1  0
 15 16  2  0
 16 47  1  0
 17 18  2  0
 17 25  1  0
 18 19  1  0
 18 48  1  0
 19 20  2  0
 19 49  1  0
 20 21  1  0
 20 24  1  0
 21 22  2  0
 22 23  1  0
 22 26  1  0
 23 24  1  0
 23 57  1  0
 24 25  2  0
 25 50  1  0
 26 27  2  0
 26 32  1  0
 27 28  1  0
 27 51  1  0
 28 29  2  0
 28 52  1  0
 29 30  1  0
 29 31  1  0
 30 53  1  0
 31 32  2  0
 31 54  1  0
 32 55  1  0
M  CHG  1   2   1
M  END
> <Mol2_MolInfo_Name>
9384

> <Mol2_MolInfo_Type>
SMALL

> <Mol2_MolInfo_Charge>
USER_CHARGES

> <Mol2_Substructures>
     1 UNK         1 GROUP             0       ****    0 ROOT    

> <Name>
9384

$$$$
9384
  SciTegic06232017503D

 57 62  0  0  0  0            999 V2000
   -6.3084    3.9610    3.9363 C   0  0
   -6.4461    3.3050    2.5491 N   0  3  2  0  0  0
   -6.3673    1.7706    2.6556 C   0  0
   -6.4771    1.1585    1.2414 C   0  0
   -5.4284    1.6447    0.3208 N   0  0
   -5.5227    3.1150    0.2234 C   0  0
   -5.3702    3.8332    1.5823 C   0  0
   -4.2106    0.9615    0.2223 C   0  0
   -4.2074   -0.4431    0.1445 C   0  0
   -3.0341   -1.1893    0.0374 C   0  0
   -1.8171   -0.5023    0.0015 C   0  0
   -0.5435   -0.9971   -0.0915 N   0  0
    0.2405    0.0583   -0.0846 C   0  0
   -0.4790    1.2324    0.0014 N   0  0
   -1.8140    0.9078    0.0618 C   0  0
   -2.9875    1.6598    0.1608 C   0  0
    1.7398    0.0029   -0.1559 C   0  0
    2.3934   -1.2306   -0.3058 C   0  0
    3.7838   -1.3471   -0.3674 C   0  0
    4.5125   -0.1612   -0.2691 C   0  0
    5.8550    0.1348   -0.2795 N   0  0
    5.9887    1.5006   -0.1418 C   0  0
    4.8230    2.1021   -0.0484 N   0  0
    3.8915    1.0998   -0.1209 C   0  0
    2.4931    1.1836   -0.0659 C   0  0
    7.3129    2.2060   -0.1073 C   0  0
    7.3712    3.6062   -0.0974 C   0  0
    8.5992    4.2616   -0.0647 C   0  0
    9.7780    3.5204   -0.0403 C   0  0
   10.9856    4.1656   -0.0079 O   0  0
    9.7363    2.1281   -0.0490 C   0  0
    8.5075    1.4739   -0.0823 C   0  0
   -5.3303    3.6961    4.3411 H   0  0
   -7.1186    3.5752    4.5563 H   0  0
   -6.4071    5.0379    3.7936 H   0  0
   -5.4367    1.5097    3.1634 H   0  0
   -7.2253    1.4771    3.2621 H   0  0
   -6.5021    0.0725    1.3133 H   0  0
   -7.4325    1.4517    0.8027 H   0  0
   -4.8276    3.5103   -0.5179 H   0  0
   -6.5188    3.3270   -0.1695 H   0  0
   -5.5766    4.8987    1.4721 H   0  0
   -4.3920    3.6816    2.0422 H   0  0
   -5.1361   -0.9934    0.1461 H   0  0
   -3.0688   -2.2675   -0.0203 H   0  0
   -2.9349    2.7363    0.2095 H   0  0
    1.8113   -2.1383   -0.3771 H   0  0
    4.2615   -2.3091   -0.4820 H   0  0
    6.6399   -0.4940   -0.3673 H   0  0
    2.0143    2.1447    0.0495 H   0  0
    6.4658    4.1954   -0.1167 H   0  0
    8.6324    5.3414   -0.0586 H   0  0
   11.7330    3.5635    0.0048 H   0  0
   10.6501    1.5523   -0.0299 H   0  0
    8.4942    0.3940   -0.0861 H   0  0
   -7.3491    3.5372    2.1594 H   0  0
   -0.0489    2.1456    0.0176 H   0  0
  1  2  1  0
  1 33  1  0
  1 34  1  0
  1 35  1  0
  2  3  1  0
  2  7  1  0
  2 56  1  0
  3  4  1  0
  3 36  1  0
  3 37  1  0
  4  5  1  0
  4 38  1  0
  4 39  1  0
  5  6  1  0
  5  8  1  0
  6  7  1  0
  6 40  1  0
  6 41  1  0
  7 42  1  0
  7 43  1  0
  8  9  2  0
  8 16  1  0
  9 10  1  0
  9 44  1  0
 10 11  2  0
 10 45  1  0
 11 12  1  0
 11 15  1  0
 12 13  2  0
 13 14  1  0
 13 17  1  0
 14 15  1  0
 14 57  1  0
 15 16  2  0
 16 46  1  0
 17 18  2  0
 17 25  1  0
 18 19  1  0
 18 47  1  0
 19 20  2  0
 19 48  1  0
 20 21  1  0
 20 24  1  0
 21 22  1  0
 21 49  1  0
 22 23  2  0
 22 26  1  0
 23 24  1  0
 24 25  2  0
 25 50  1  0
 26 27  2  0
 26 32  1  0
 27 28  1  0
 27 51  1  0
 28 29  2  0
 28 52  1  0
 29 30  1  0
 29 31  1  0
 30 53  1  0
 31 32  2  0
 31 54  1  0
 32 55  1  0
M  CHG  1   2   1
M  END
> <Mol2_MolInfo_Name>
9384

> <Mol2_MolInfo_Type>
SMALL

> <Mol2_MolInfo_Charge>
USER_CHARGES

> <Mol2_Substructures>
     1 UNK         1 GROUP             0       ****    0 ROOT    

> <Name>
9384

$$$$
9384
  SciTegic06232017503D

 58 63  0  0  0  0            999 V2000
   -6.5709   -3.6359   -3.9398 C   0  0
   -6.6323   -3.0124   -2.5323 N   0  3  2  0  0  0
   -6.5545   -1.4758   -2.6049 C   0  0
   -6.5862   -0.8982   -1.1718 C   0  0
   -5.4955   -1.4128   -0.3169 N   0  0
   -5.5977   -2.8846   -0.2521 C   0  0
   -5.5103   -3.5665   -1.6349 C   0  0
   -4.2710   -0.7374   -0.2406 C   0  0
   -4.2520    0.6669   -0.1510 C   0  0
   -3.0755    1.4121   -0.0498 C   0  0
   -1.8807    0.6945   -0.0293 C   0  0
   -0.5559    1.1017    0.0626 N   0  0
    0.2765    0.0067    0.0451 C   0  0  3  0  0  0
   -0.5384   -1.0968   -0.0559 N   0  0
   -1.8701   -0.7051   -0.1028 C   0  0
   -3.0520   -1.4441   -0.2013 C   0  0
    1.7696    0.0136    0.1200 C   0  0
    2.4695   -1.1893    0.2923 C   0  0
    3.8635   -1.2445    0.3670 C   0  0
    4.5421   -0.0290    0.2616 C   0  0
    5.8703    0.3260    0.2862 N   0  0
    5.9460    1.6949    0.1337 C   0  0
    4.7567    2.2432    0.0144 N   0  0
    3.8687    1.2023    0.0882 C   0  0
    2.4686    1.2246    0.0162 C   0  0
    7.2381    2.4581    0.1125 C   0  0
    7.2340    3.8595    0.0929 C   0  0
    8.4319    4.5690    0.0721 C   0  0
    9.6431    3.8812    0.0695 C   0  0
   10.8210    4.5797    0.0483 O   0  0
    9.6633    2.4885    0.0882 C   0  0
    8.4646    1.7801    0.1099 C   0  0
   -5.6114   -3.3720   -4.3874 H   0  0
   -7.4064   -3.2275   -4.5098 H   0  0
   -6.6748   -4.7148   -3.8175 H   0  0
   -5.6528   -1.2035   -3.1569 H   0  0
   -7.4441   -1.1668   -3.1560 H   0  0
   -6.6114    0.1889   -1.2172 H   0  0
   -7.5193   -1.1981   -0.6912 H   0  0
   -4.8755   -3.3058    0.4473 H   0  0
   -6.5767   -3.1018    0.1799 H   0  0
   -5.7118   -4.6348   -1.5430 H   0  0
   -4.5551   -3.4029   -2.1375 H   0  0
   -5.1768    1.2233   -0.1345 H   0  0
   -3.0998    2.4902    0.0182 H   0  0
   -0.2051    2.0458    0.1349 H   0  0
   -3.0088   -2.5206   -0.2605 H   0  0
    1.9251   -2.1191    0.3734 H   0  0
    4.3818   -2.1830    0.4998 H   0  0
    6.6815   -0.2654    0.3945 H   0  0
    1.9472    2.1612   -0.1182 H   0  0
    6.3035    4.4087    0.0947 H   0  0
    8.4168    5.6494    0.0579 H   0  0
   11.5949    4.0119    0.0467 H   0  0
   10.6021    1.9539    0.0853 H   0  0
    8.5004    0.7007    0.1220 H   0  0
   -7.5147   -3.2528   -2.1021 H   0  0
   -0.1711   -2.0367   -0.0874 H   0  0
  1  2  1  0
  1 33  1  0
  1 34  1  0
  1 35  1  0
  2  3  1  0
  2  7  1  0
  2 57  1  0
  3  4  1  0
  3 36  1  0
  3 37  1  0
  4  5  1  0
  4 38  1  0
  4 39  1  0
  5  6  1  0
  5  8  1  0
  6  7  1  0
  6 40  1  0
  6 41  1  0
  7 42  1  0
  7 43  1  0
  8  9  2  0
  8 16  1  0
  9 10  1  0
  9 44  1  0
 10 11  2  0
 10 45  1  0
 11 12  1  0
 11 15  1  0
 12 13  1  0
 12 46  1  0
 13 14  1  0
 13 17  1  0
 14 15  1  0
 14 58  1  0
 15 16  2  0
 16 47  1  0
 17 18  2  0
 17 25  1  0
 18 19  1  0
 18 48  1  0
 19 20  2  0
 19 49  1  0
 20 21  1  0
 20 24  1  0
 21 22  1  0
 21 50  1  0
 22 23  2  0
 22 26  1  0
 23 24  1  0
 24 25  2  0
 25 51  1  0
 26 27  2  0
 26 32  1  0
 27 28  1  0
 27 52  1  0
 28 29  2  0
 28 53  1  0
 29 30  1  0
 29 31  1  0
 30 54  1  0
 31 32  2  0
 31 55  1  0
 32 56  1  0
M  CHG  1   2   1
M  END
> <Mol2_MolInfo_Name>
9384

> <Mol2_MolInfo_Type>
SMALL

> <Mol2_MolInfo_Charge>
USER_CHARGES

> <Mol2_Substructures>
     1 UNK         1 GROUP             0       ****    0 ROOT    

> <Name>
9384

$$$$
9591
  SciTegic06232017503D

 82 87  0  0  0  0            999 V2000
   -2.8408   -2.4084    0.2645 C   0  0
   -2.1234   -1.0684    0.1316 C   0  0
   -0.7241   -1.0635    0.1450 C   0  0
    0.0041    0.1246    0.0292 C   0  0
   -0.7082    1.3186   -0.1043 C   0  0
   -2.1003    1.3233   -0.1175 C   0  0
   -2.8481    0.1339    0.0015 C   0  0
   -4.2588    0.0820   -0.0026 N   0  0
   -4.8690    1.1974   -0.0654 N   0  0
   -6.2838    1.1573   -0.0664 C   0  0
   -7.0224   -0.0306   -0.0628 C   0  0
   -8.4044   -0.0386   -0.0629 C   0  0
   -9.1550    1.1632   -0.0665 C   0  0
  -10.5864    1.1506   -0.0650 C   0  0
  -11.2797    2.3561   -0.0680 C   0  0
  -10.6282    3.5835   -0.0717 C   0  0
   -9.2241    3.6339   -0.0741 C   0  0
   -8.6197    4.8966   -0.0781 N   0  0
   -8.4468    2.4135   -0.0716 C   0  0
   -6.9979    2.3708   -0.0731 C   0  0
   -6.2532    3.5299   -0.0791 O   0  0
  -11.6353    5.0951   -0.0722 S   0  0
  -11.2235    5.7550   -1.3168 O   0  0
  -13.0259    4.6259   -0.0607 O   0  0
  -11.2078    5.7675    1.1603 O   0  5
  -11.5375   -0.3936   -0.0586 S   0  0
  -11.0964   -1.0471   -1.2964 O   0  0
  -11.0945   -1.0378    1.1833 O   0  0
  -12.9441    0.0257   -0.0590 O   0  5
    1.4950    0.1195    0.0494 C   0  0
    2.2071    1.1067    0.7346 C   0  0
    3.5993    1.1032    0.7499 C   0  0
    4.3472    0.1128    0.0808 C   0  0
    5.7580    0.0644    0.0611 N   0  0
    6.3684    1.0087    0.6582 N   0  0
    7.7833    0.9739    0.6375 C   0  0
    8.5215   -0.0545    0.0424 C   0  0
    9.9034   -0.0598    0.0336 C   0  0
   10.6547    0.9834    0.6299 C   0  0
   12.0861    0.9769    0.6149 C   0  0
   12.7798    2.0238    1.2120 C   0  0
   12.1292    3.0851    1.8292 C   0  0
   10.7252    3.1235    1.8647 C   0  0
   10.1216    4.2143    2.5014 N   0  0
    9.9473    2.0644    1.2589 C   0  0
    8.4982    2.0243    1.2442 C   0  0
    7.7540    3.0260    1.8278 O   0  0
   13.1377    4.3989    2.5750 S   0  0
   12.7318    4.3553    3.9845 O   0  0
   14.5280    3.9991    2.3274 O   0  0
   12.7060    5.5931    1.8390 O   0  5
   13.0371   -0.3572   -0.1632 S   0  0
   12.6032   -1.5409    0.5881 O   0  0
   12.5868   -0.2998   -1.5589 O   0  0
   14.4435    0.0106    0.0387 O   0  5
    3.6225   -0.8831   -0.6054 C   0  0
    4.3397   -1.9991   -1.3591 C   0  0
    2.2232   -0.8714   -0.6162 C   0  0
   -3.4672   -2.4141    1.1572 H   0  0
   -2.1498   -3.2501    0.3265 H   0  0
   -3.4937   -2.5728   -0.5933 H   0  0
   -0.1946   -1.9990    0.2560 H   0  0
   -0.1840    2.2580   -0.2039 H   0  0
   -2.5947    2.2777   -0.2237 H   0  0
   -6.5248   -0.9895   -0.0600 H   0  0
   -8.8970   -0.9974   -0.0594 H   0  0
  -12.3576    2.3376   -0.0666 H   0  0
   -7.6119    4.9611   -0.0729 H   0  0
   -9.2009    5.7232   -0.0741 H   0  0
   -5.3096    3.3528   -0.0780 H   0  0
    1.6834    1.8862    1.2685 H   0  0
    4.0937    1.8916    1.2981 H   0  0
    8.0233   -0.8859   -0.4347 H   0  0
   10.3952   -0.8896   -0.4473 H   0  0
   13.8575    2.0114    1.1954 H   0  0
    9.1139    4.2661    2.5427 H   0  0
   10.7039    4.9306    2.9126 H   0  0
    6.8106    2.8712    1.7410 H   0  0
    3.6490   -2.6729   -1.8678 H   0  0
    4.9473   -2.5881   -0.6712 H   0  0
    5.0107   -1.5778   -2.1087 H   0  0
    1.6938   -1.6426   -1.1574 H   0  0
  1  2  1  0
  1 59  1  0
  1 60  1  0
  1 61  1  0
  2  3  2  0
  2  7  1  0
  3  4  1  0
  3 62  1  0
  4  5  2  0
  4 30  1  0
  5  6  1  0
  5 63  1  0
  6  7  2  0
  6 64  1  0
  7  8  1  0
  8  9  2  0
  9 10  1  0
 10 11  2  0
 10 20  1  0
 11 12  1  0
 11 65  1  0
 12 13  2  0
 12 66  1  0
 13 14  1  0
 13 19  1  0
 14 15  2  0
 14 26  1  0
 15 16  1  0
 15 67  1  0
 16 17  2  0
 16 22  1  0
 17 18  1  0
 17 19  1  0
 18 68  1  0
 18 69  1  0
 19 20  2  0
 20 21  1  0
 21 70  1  0
 22 23  2  0
 22 24  2  0
 22 25  1  0
 26 27  2  0
 26 28  2  0
 26 29  1  0
 30 31  2  0
 30 58  1  0
 31 32  1  0
 31 71  1  0
 32 33  2  0
 32 72  1  0
 33 34  1  0
 33 56  1  0
 34 35  2  0
 35 36  1  0
 36 37  2  0
 36 46  1  0
 37 38  1  0
 37 73  1  0
 38 39  2  0
 38 74  1  0
 39 40  1  0
 39 45  1  0
 40 41  2  0
 40 52  1  0
 41 42  1  0
 41 75  1  0
 42 43  2  0
 42 48  1  0
 43 44  1  0
 43 45  1  0
 44 76  1  0
 44 77  1  0
 45 46  2  0
 46 47  1  0
 47 78  1  0
 48 49  2  0
 48 50  2  0
 48 51  1  0
 52 53  2  0
 52 54  2  0
 52 55  1  0
 56 57  1  0
 56 58  2  0
 57 79  1  0
 57 80  1  0
 57 81  1  0
 58 82  1  0
M  CHG  4  25  -1  29  -1  51  -1  55  -1
M  END
> <Mol2_MolInfo_Name>
9591

> <Mol2_MolInfo_Type>
SMALL

> <Mol2_MolInfo_Charge>
USER_CHARGES

> <Mol2_Substructures>
     1 UNK         1 GROUP             0       ****    0 ROOT    

> <Name>
9591

$$$$
9593
  SciTegic06232017503D

 35 37  0  0  0  0            999 V2000
   -2.2580    0.8554    0.0000 C   0  0
   -0.7741    1.2340    0.0000 C   0  0
    0.0023    0.0395    0.0000 O   0  0
    1.3816    0.1232    0.0000 C   0  0
    2.0731   -1.0874    0.0000 C   0  0
    3.4634   -1.1296    0.0000 C   0  0
    4.1873    0.0801    0.0000 C   0  0
    5.5588    0.0697    0.0000 N   0  0
    6.3704    1.1752    0.0000 C   0  0
    7.7755    1.0318    0.0000 C   0  0
    8.5758    2.1716    0.0000 C   0  0
    9.9637    2.0420    0.0000 N   0  0
    7.9975    3.4394    0.0000 C   0  0
    6.6116    3.5932    0.0000 C   0  0
    5.7497    2.4572    0.0000 C   0  0
    4.3221    2.5324    0.0000 C   0  0  3  0  0  0
    3.6954    3.7857    0.0000 N   0  0
    3.5289    1.3420    0.0000 C   0  0
    2.1022    1.3297    0.0000 C   0  0
   -2.8880    1.7452    0.0000 H   0  0
   -2.5134    0.2664    0.8814 H   0  0
   -2.5134    0.2664   -0.8814 H   0  0
   -0.5510    1.8345   -0.8837 H   0  0
   -0.5510    1.8345    0.8837 H   0  0
    1.5192   -2.0153    0.0000 H   0  0
    3.9859   -2.0755    0.0000 H   0  0
    8.2133    0.0433    0.0000 H   0  0
   10.5415    2.8704    0.0000 H   0  0
   10.3776    1.1209    0.0000 H   0  0
    8.6234    4.3204    0.0000 H   0  0
    6.1944    4.5897    0.0000 H   0  0
    2.6872    3.8383    0.0000 H   0  0
    4.2594    4.6231    0.0000 H   0  0
    1.5796    2.2736    0.0000 H   0  0
    6.0113   -0.8331    0.0000 H   0  0
  1  2  1  0
  1 20  1  0
  1 21  1  0
  1 22  1  0
  2  3  1  0
  2 23  1  0
  2 24  1  0
  3  4  1  0
  4  5  2  0
  4 19  1  0
  5  6  1  0
  5 25  1  0
  6  7  2  0
  6 26  1  0
  7  8  1  0
  7 18  1  0
  8  9  1  0
  8 35  1  0
  9 10  2  0
  9 15  1  0
 10 11  1  0
 10 27  1  0
 11 12  1  0
 11 13  2  0
 12 28  1  0
 12 29  1  0
 13 14  1  0
 13 30  1  0
 14 15  2  0
 14 31  1  0
 15 16  1  0
 16 17  1  0
 16 18  1  0
 17 32  1  0
 17 33  1  0
 18 19  2  0
 19 34  1  0
M  END
> <Mol2_MolInfo_Name>
9593

> <Mol2_MolInfo_Type>
SMALL

> <Mol2_MolInfo_Charge>
USER_CHARGES

> <Mol2_Substructures>
     1 UNK         1 GROUP             0       ****    0 ROOT    

> <Name>
9593

$$$$
14460
  SciTegic06232017503D

113121  0  0  0  0            999 V2000
   -4.0471    4.5995    2.4273 C   0  0
   -2.5534    4.9566    2.4311 C   0  0
   -1.6283    3.7489    2.3707 C   0  0
   -0.8725    3.4941    1.2779 C   0  0
    0.0644    2.2968    1.1136 C   0  0  1  0  0  0
    0.3653    1.6796    2.5083 C   0  0
   -0.9276    1.4903    3.3319 N   0  3  1  0  0  0
   -1.5477    2.8782    3.6313 C   0  0
   -1.9571    0.5265    2.6885 C   0  0
   -1.2975   -0.7617    2.2027 C   0  0
   -0.5270   -1.0098    1.0461 C   0  0
   -0.2115   -2.3562    1.0620 N   0  0
   -0.6961   -2.9946    2.1736 C   0  0
   -0.5913   -4.3266    2.5887 C   0  0
   -1.2078   -4.6631    3.7935 C   0  0
   -1.8988   -3.7207    4.5496 C   0  0
   -1.9998   -2.3959    4.1284 C   0  0
   -1.3914   -2.0084    2.9207 C   0  0
   -0.0035   -0.1156   -0.1256 C   0  0  2  0  0  0
   -0.5338    1.3595    0.0163 C   0  0
   -0.5838   -0.7379   -1.4454 C   0  0
   -1.5645   -0.2566   -2.0211 O   0  0
    0.0973   -1.8323   -1.8753 O   0  0
   -0.2867   -2.5029   -3.0666 C   0  0
    1.5663   -0.0646   -0.2434 C   0  0
    2.3682   -0.5994    0.7813 C   0  0
    3.7578   -0.5173    0.7601 C   0  0
    4.3854    0.1000   -0.3124 C   0  0
    3.6269    0.6574   -1.3383 C   0  0
    2.2226    0.5804   -1.3244 C   0  0
    1.4480    1.1393   -2.3271 O   0  0
    2.0614    1.7834   -3.4387 C   0  0
    5.7509    0.1688   -0.0371 N   0  0
    6.7579    0.1962   -1.0982 C   0  0
    6.0890   -0.7208    1.0884 C   0  0  1  0  0  0
    7.2369   -0.3227    2.0989 C   0  0  2  0  0  0
    7.4182   -1.4543    2.9477 O   0  0
    6.8463    0.9407    2.9571 C   0  0  2  0  0  0
    7.7977    1.0873    4.0316 O   0  0
    8.5274    2.2108    4.2303 C   0  0
    8.5081    3.2310    3.5424 O   0  0
    9.4370    2.0939    5.4456 C   0  0
    5.3340    1.0620    3.4339 C   0  0  2  0  0  0
    4.6373    2.2560    2.6958 C   0  0
    5.2124    3.6771    2.8728 C   0  0
    5.2252    1.3710    4.9469 C   0  0
    4.7609    0.5327    5.8951 C   0  0
    4.2701   -0.8788    5.6234 C   0  0
    4.8056   -1.3235    4.2481 N   0  3  1  0  0  0
    4.1916   -2.5954    3.6600 C   0  0
    4.5437   -2.5018    2.1757 C   0  0
    4.7393   -1.0009    1.8107 C   0  0  2  0  0  0
    4.5244   -0.2630    3.1669 C   0  0  2  0  0  0
    8.6118   -0.1541    1.3695 C   0  0
    9.3277   -1.1233    1.0937 O   0  0
    8.9340    1.1326    1.0899 O   0  0
   10.1628    1.4565    0.4561 C   0  0
   -4.6601    5.5012    2.4288 H   0  0
   -4.3250    4.0151    3.3046 H   0  0
   -4.3137    4.0215    1.5416 H   0  0
   -2.3506    5.6226    1.5906 H   0  0
   -2.3152    5.5311    3.3272 H   0  0
   -0.9681    4.1651    0.4359 H   0  0
    1.0176    2.6706    0.7365 H   0  0
    0.8887    0.7301    2.4983 H   0  0
    0.9791    2.3548    3.1075 H   0  0
   -0.8658    3.3428    4.3447 H   0  0
   -2.5093    2.7072    4.1166 H   0  0
   -2.6650    0.3475    3.4984 H   0  0
   -2.5012    1.0822    1.9300 H   0  0
    0.3302   -2.7765    0.3204 H   0  0
   -0.0601   -5.0675    2.0092 H   0  0
   -1.1506   -5.6820    4.1490 H   0  0
   -2.3656   -4.0222    5.4762 H   0  0
   -2.5420   -1.6821    4.7307 H   0  0
   -1.6195    1.3304    0.0854 H   0  0
   -0.3926    1.8922   -0.9254 H   0  0
    0.3798   -3.3460   -3.2478 H   0  0
   -0.2302   -1.8345   -3.9272 H   0  0
   -1.3058   -2.8846   -2.9899 H   0  0
    1.9248   -1.0711    1.6426 H   0  0
    4.1395    1.1754   -2.1335 H   0  0
    1.2871    2.1321   -4.1220 H   0  0
    2.7056    1.0994   -3.9934 H   0  0
    2.6412    2.6535   -3.1271 H   0  0
    6.3068    0.4396   -2.0603 H   0  0
    7.2640   -0.7631   -1.2167 H   0  0
    7.5006    0.9679   -0.9096 H   0  0
    6.3899   -1.6571    0.6108 H   0  0
    8.1116   -1.2490    3.5802 H   0  0
    7.0018    1.7864    2.2890 H   0  0
    8.8550    1.8474    6.3339 H   0  0
    9.9600    3.0332    5.6273 H   0  0
   10.1796    1.3121    5.2865 H   0  0
    4.6153    2.0565    1.6263 H   0  0
    3.5870    2.2902    2.9915 H   0  0
    4.5843    4.4020    2.3541 H   0  0
    6.2095    3.7741    2.4478 H   0  0
    5.2551    3.9882    3.9153 H   0  0
    5.5765    2.3276    5.3038 H   0  0
    4.7542    0.8884    6.9155 H   0  0
    4.6424   -1.6020    6.3498 H   0  0
    3.1795   -0.9047    5.6017 H   0  0
    4.6108   -3.4509    4.1906 H   0  0
    3.1183   -2.5395    3.8522 H   0  0
    5.4449   -3.0898    1.9974 H   0  0
    3.7411   -2.9660    1.6004 H   0  0
    3.4550   -0.0770    3.3045 H   0  0
   10.2326    2.5352    0.3167 H   0  0
   10.2366    0.9815   -0.5233 H   0  0
   11.0116    1.1374    1.0628 H   0  0
   -0.6502    1.0842    4.2144 H   0  0
    5.8056   -1.4595    4.3087 H   0  0
  1  2  1  0
  1 58  1  0
  1 59  1  0
  1 60  1  0
  2  3  1  0
  2 61  1  0
  2 62  1  0
  3  4  2  0
  3  8  1  0
  4  5  1  0
  4 63  1  0
  5  6  1  0
  5 64  1  0
  5 20  1  0
  6  7  1  0
  6 65  1  0
  6 66  1  0
  7  8  1  0
  7  9  1  0
  7112  1  0
  8 67  1  0
  8 68  1  0
  9 10  1  0
  9 69  1  0
  9 70  1  0
 10 11  2  0
 10 18  1  0
 11 12  1  0
 11 19  1  0
 12 13  1  0
 12 71  1  0
 13 14  2  0
 13 18  1  0
 14 15  1  0
 14 72  1  0
 15 16  2  0
 15 73  1  0
 16 17  1  0
 16 74  1  0
 17 18  2  0
 17 75  1  0
 19 20  1  0
 19 21  1  0
 19 25  1  0
 20 76  1  0
 20 77  1  0
 21 22  2  0
 21 23  1  0
 23 24  1  0
 24 78  1  0
 24 79  1  0
 24 80  1  0
 25 26  2  0
 25 30  1  0
 26 27  1  0
 26 81  1  0
 27 28  2  0
 27 52  1  0
 28 29  1  0
 28 33  1  0
 29 30  2  0
 29 82  1  0
 30 31  1  0
 31 32  1  0
 32 83  1  0
 32 84  1  0
 32 85  1  0
 33 34  1  0
 33 35  1  0
 34 86  1  0
 34 87  1  0
 34 88  1  0
 35 36  1  0
 35 89  1  0
 35 52  1  0
 36 37  1  0
 36 38  1  0
 36 54  1  0
 37 90  1  0
 38 39  1  0
 38 43  1  0
 38 91  1  0
 39 40  1  0
 40 41  2  0
 40 42  1  0
 42 92  1  0
 42 93  1  0
 42 94  1  0
 43 44  1  0
 43 46  1  0
 43 53  1  0
 44 45  1  0
 44 95  1  0
 44 96  1  0
 45 97  1  0
 45 98  1  0
 45 99  1  0
 46 47  2  0
 46100  1  0
 47 48  1  0
 47101  1  0
 48 49  1  0
 48102  1  0
 48103  1  0
 49 50  1  0
 49 53  1  0
 49113  1  0
 50 51  1  0
 50104  1  0
 50105  1  0
 51 52  1  0
 51106  1  0
 51107  1  0
 52 53  1  0
 53108  1  0
 54 55  2  0
 54 56  1  0
 56 57  1  0
 57109  1  0
 57110  1  0
 57111  1  0
M  CHG  2   7   1  49   1
M  END
> <Mol2_MolInfo_Name>
14460

> <Mol2_MolInfo_Type>
SMALL

> <Mol2_MolInfo_Charge>
USER_CHARGES

> <Mol2_Substructures>
     1 ****        1 GROUP             0       ****    0 ROOT    

> <Name>
14460

$$$$
14460
  SciTegic06232017503D

113121  0  0  0  0            999 V2000
    3.5512    5.0425    2.7723 C   0  0
    3.2275    4.0860    1.6158 C   0  0
    1.9272    3.3152    1.7928 C   0  0
    0.9095    3.4117    0.8962 C   0  0
   -0.4198    2.6387    1.0039 C   0  0  2  0  0  0
   -0.6023    2.1108    2.4299 C   0  0
    0.7209    1.3728    2.6824 N   0  3  1  0  0  0
    1.8339    2.3802    3.0104 C   0  0
    0.5807    0.0504    3.4278 C   0  0
   -0.2972   -0.8258    2.5392 C   0  0
   -0.4853   -0.7858    1.1317 C   0  0
   -1.4839   -1.7057    0.8635 N   0  0
   -1.8792   -2.4036    1.9762 C   0  0
   -2.8100   -3.4364    2.1330 C   0  0
   -2.9852   -3.9385    3.4226 C   0  0
   -2.2728   -3.4343    4.5072 C   0  0
   -1.3508   -2.4016    4.3435 C   0  0
   -1.1366   -1.8705    3.0596 C   0  0
    0.1505    0.0854   -0.0296 C   0  0  2  0  0  0
   -0.5921    1.5118   -0.0761 C   0  0
   -0.0826   -0.6258   -1.4187 C   0  0
   -0.5950   -0.0521   -2.3845 O   0  0
    0.3428   -1.9192   -1.4401 O   0  0
    0.2167   -2.7077   -2.6140 C   0  0
    1.7281    0.1293    0.0088 C   0  0
    2.4354   -0.8869    0.6927 C   0  0
    3.8174   -1.0568    0.5601 C   0  0
    4.5254   -0.1618   -0.2293 C   0  0
    3.8811    0.8983   -0.8528 C   0  0
    2.4843    1.0320   -0.7846 C   0  0
    1.8148    1.9809   -1.5347 O   0  0
    2.5336    2.9063   -2.3446 C   0  0
    5.8479   -0.5852   -0.3068 N   0  0
    6.5807   -0.6573   -1.5706 C   0  0
    6.1152   -1.7290    0.5753 C   0  0  1  0  0  0
    7.2064   -1.5407    1.7095 C   0  0  2  0  0  0
    7.7002   -2.8372    2.0321 O   0  0
    6.5993   -0.8662    2.9909 C   0  0  2  0  0  0
    7.6123   -0.6668    4.0025 O   0  0
    8.1521    0.5393    4.3078 C   0  0
    7.8798    1.6200    3.7848 O   0  0
    9.1914    0.4366    5.4157 C   0  0
    5.3141   -1.5671    3.6029 C   0  0  2  0  0  0
    4.3015   -0.4752    4.0584 C   0  0
    4.7716    0.6454    5.0055 C   0  0
    5.6421   -2.3735    4.8834 C   0  0
    5.4407   -3.6921    5.0651 C   0  0
    4.8864   -4.6166    4.0015 C   0  0
    5.1490   -3.9634    2.6333 N   0  3  1  0  0  0
    4.5558   -4.6787    1.4160 C   0  0
    4.2701   -3.5490    0.4265 C   0  0
    4.7058   -2.1959    1.0519 C   0  0  2  0  0  0
    4.5912   -2.5250    2.5662 C   0  0  2  0  0  0
    8.4397   -0.7315    1.1749 C   0  0
    9.5373   -1.2555    0.9539 O   0  0
    8.1756    0.5865    0.9988 O   0  0
    9.1789    1.4727    0.5251 C   0  0
    4.4797    5.5815    2.5817 H   0  0
    3.6726    4.5049    3.7134 H   0  0
    2.7612    5.7821    2.9069 H   0  0
    3.2038    4.6511    0.6827 H   0  0
    4.0371    3.3633    1.5051 H   0  0
    1.0405    4.0687    0.0484 H   0  0
   -1.2091    3.3727    0.8336 H   0  0
   -0.6858    2.9067    3.1729 H   0  0
   -1.4622    1.4497    2.5412 H   0  0
    2.7487    1.8137    3.1544 H   0  0
    1.5598    2.8891    3.9357 H   0  0
    1.5872   -0.3366    3.5477 H   0  0
    0.1566    0.3113    4.3987 H   0  0
   -1.8257   -1.8471   -0.0764 H   0  0
   -3.3710   -3.8338    1.2997 H   0  0
   -3.6936   -4.7379    3.5848 H   0  0
   -2.4397   -3.8491    5.4907 H   0  0
   -0.8105   -2.0199    5.1972 H   0  0
   -1.6606    1.2855   -0.0791 H   0  0
   -0.4655    2.0059   -1.0387 H   0  0
    0.6032   -3.7097   -2.4280 H   0  0
    0.7819   -2.2720   -3.4392 H   0  0
   -0.8278   -2.7970   -2.9164 H   0  0
    1.8991   -1.6371    1.2515 H   0  0
    4.4722    1.5615   -1.4649 H   0  0
    1.8279    3.5844   -2.8243 H   0  0
    3.0912    2.3998   -3.1336 H   0  0
    3.2181    3.5124   -1.7492 H   0  0
    6.4486    0.2631   -2.1400 H   0  0
    6.2124   -1.4835   -2.1803 H   0  0
    7.6503   -0.7986   -1.4209 H   0  0
    6.4995   -2.5266   -0.0658 H   0  0
    8.3696   -2.7435    2.7148 H   0  0
    6.2735    0.1221    2.6604 H   0  0
    8.7309    0.0711    6.3334 H   0  0
    9.6369    1.4107    5.6182 H   0  0
    9.9864   -0.2510    5.1271 H   0  0
    3.8970   -0.0057    3.1646 H   0  0
    3.4557   -0.9690    4.5390 H   0  0
    3.9158    1.2075    5.3802 H   0  0
    5.4071    1.3625    4.4910 H   0  0
    5.3106    0.2660    5.8726 H   0  0
    6.0647   -1.8472    5.7272 H   0  0
    5.7083   -4.1128    6.0237 H   0  0
    5.3949   -5.5812    3.9833 H   0  0
    3.8126   -4.7630    4.1274 H   0  0
    5.3015   -5.4013    1.0832 H   0  0
    3.6414   -5.1787    1.7403 H   0  0
    4.7198   -3.7218   -0.5521 H   0  0
    3.1966   -3.5492    0.2290 H   0  0
    3.5387   -2.6576    2.8341 H   0  0
    8.7695    2.4787    0.4346 H   0  0
    9.5434    1.1644   -0.4560 H   0  0
   10.0237    1.5102    1.2143 H   0  0
    0.9746    1.0405    1.7618 H   0  0
    6.1474   -3.8921    2.4883 H   0  0
  1  2  1  0
  1 58  1  0
  1 59  1  0
  1 60  1  0
  2  3  1  0
  2 61  1  0
  2 62  1  0
  3  4  2  0
  3  8  1  0
  4  5  1  0
  4 63  1  0
  5  6  1  0
  5 64  1  0
  5 20  1  0
  6  7  1  0
  6 65  1  0
  6 66  1  0
  7  8  1  0
  7  9  1  0
  7112  1  0
  8 67  1  0
  8 68  1  0
  9 10  1  0
  9 69  1  0
  9 70  1  0
 10 11  2  0
 10 18  1  0
 11 12  1  0
 11 19  1  0
 12 13  1  0
 12 71  1  0
 13 14  2  0
 13 18  1  0
 14 15  1  0
 14 72  1  0
 15 16  2  0
 15 73  1  0
 16 17  1  0
 16 74  1  0
 17 18  2  0
 17 75  1  0
 19 20  1  0
 19 21  1  0
 19 25  1  0
 20 76  1  0
 20 77  1  0
 21 22  2  0
 21 23  1  0
 23 24  1  0
 24 78  1  0
 24 79  1  0
 24 80  1  0
 25 26  2  0
 25 30  1  0
 26 27  1  0
 26 81  1  0
 27 28  2  0
 27 52  1  0
 28 29  1  0
 28 33  1  0
 29 30  2  0
 29 82  1  0
 30 31  1  0
 31 32  1  0
 32 83  1  0
 32 84  1  0
 32 85  1  0
 33 34  1  0
 33 35  1  0
 34 86  1  0
 34 87  1  0
 34 88  1  0
 35 36  1  0
 35 89  1  0
 35 52  1  0
 36 37  1  0
 36 38  1  0
 36 54  1  0
 37 90  1  0
 38 39  1  0
 38 43  1  0
 38 91  1  0
 39 40  1  0
 40 41  2  0
 40 42  1  0
 42 92  1  0
 42 93  1  0
 42 94  1  0
 43 44  1  0
 43 46  1  0
 43 53  1  0
 44 45  1  0
 44 95  1  0
 44 96  1  0
 45 97  1  0
 45 98  1  0
 45 99  1  0
 46 47  2  0
 46100  1  0
 47 48  1  0
 47101  1  0
 48 49  1  0
 48102  1  0
 48103  1  0
 49 50  1  0
 49 53  1  0
 49113  1  0
 50 51  1  0
 50104  1  0
 50105  1  0
 51 52  1  0
 51106  1  0
 51107  1  0
 52 53  1  0
 53108  1  0
 54 55  2  0
 54 56  1  0
 56 57  1  0
 57109  1  0
 57110  1  0
 57111  1  0
M  CHG  2   7   1  49   1
M  END
> <Mol2_MolInfo_Name>
14460

> <Mol2_MolInfo_Type>
SMALL

> <Mol2_MolInfo_Charge>
USER_CHARGES

> <Mol2_Substructures>
     1 ****        1 GROUP             0       ****    0 ROOT    

> <Name>
14460

$$$$
14460
  SciTegic06232017503D

113121  0  0  0  0            999 V2000
   -3.0620    0.4590   -4.7926 C   0  0
   -3.1546    1.5983   -3.7636 C   0  0
   -2.8936    1.2094   -2.3107 C   0  0
   -2.1182    1.9843   -1.5017 C   0  0
   -1.8771    1.7184    0.0017 C   0  0  1  0  0  0
   -2.9092    0.7088    0.5270 C   0  0
   -2.8099   -0.4376   -0.4898 N   0  3  2  0  0  0
   -3.5439   -0.0895   -1.7928 C   0  0
   -2.8191   -1.8543    0.0767 C   0  0
   -1.6492   -1.9071    1.0558 C   0  0
   -0.4360   -1.1660    1.0763 C   0  0
    0.1721   -1.4758    2.2779 N   0  0
   -0.4951   -2.4480    2.9778 C   0  0
   -0.1968   -3.0778    4.1912 C   0  0
   -1.1012   -4.0388    4.6432 C   0  0
   -2.2519   -4.3548    3.9263 C   0  0
   -2.5445   -3.7183    2.7211 C   0  0
   -1.6558   -2.7497    2.2220 C   0  0
    0.2520   -0.1014    0.1355 C   0  0  2  0  0  0
   -0.3928    1.3447    0.3654 C   0  0
    0.1735   -0.4423   -1.3900 C   0  0
   -0.3335   -1.4840   -1.8140 O   0  0
    0.7543    0.5078   -2.1698 O   0  0
    0.8672    0.3320   -3.5728 C   0  0
    1.8073   -0.1163    0.4187 C   0  0
    2.4741    1.0440    0.8597 C   0  0
    3.8532    1.0706    1.0620 C   0  0
    4.5862   -0.0939    0.8813 C   0  0
    3.9619   -1.2731    0.4965 C   0  0
    2.5774   -1.3012    0.2574 C   0  0
    1.9186   -2.4594   -0.1217 O   0  0
    2.6415   -3.6713   -0.3057 C   0  0
    5.9077    0.1864    1.2083 N   0  0
    6.7442   -0.6042    2.1050 C   0  0
    6.1578    1.6312    1.2645 C   0  0  1  0  0  0
    7.0018    2.2674    0.0827 C   0  0  2  0  0  0
    7.6350    3.4410    0.5875 O   0  0
    6.0904    2.6556   -1.1424 C   0  0  2  0  0  0
    6.8804    3.1829   -2.2311 O   0  0
    7.1333    2.5061   -3.3782 C   0  0
    6.7399    1.3752   -3.6648 O   0  0
    7.9921    3.3132   -4.3421 C   0  0
    4.8656    3.6129   -0.8189 C   0  0  2  0  0  0
    3.6358    3.1941   -1.6978 C   0  0
    3.7336    3.2812   -3.2337 C   0  0
    5.1637    5.0887   -1.1783 C   0  0
    5.1376    6.1364   -0.3323 C   0  0
    4.8471    6.0228    1.1503 C   0  0
    5.1844    4.5849    1.5796 N   0  3  1  0  0  0
    4.8302    4.1936    3.0215 C   0  0
    4.4859    2.7020    2.9307 C   0  0
    4.7396    2.2332    1.4778 C   0  0  2  0  0  0
    4.4519    3.5438    0.7083 C   0  0  2  0  0  0
    8.1387    1.2744   -0.3519 C   0  0
    7.8974    0.3288   -1.1071 O   0  0
    9.3631    1.5263    0.1861 O   0  0
   10.4739    0.6958   -0.1199 C   0  0
   -3.1419    0.8489   -5.8078 H   0  0
   -3.8685   -0.2631   -4.6625 H   0  0
   -2.1192   -0.0803   -4.7202 H   0  0
   -2.4696    2.3950   -4.0584 H   0  0
   -4.1542    2.0317   -3.8135 H   0  0
   -1.6770    2.8742   -1.9273 H   0  0
   -2.0890    2.6654    0.5006 H   0  0
   -2.7107    0.3669    1.5429 H   0  0
   -3.9324    1.0874    0.4871 H   0  0
   -4.6051    0.0091   -1.5608 H   0  0
   -3.3791   -0.9394   -2.4553 H   0  0
   -3.8071   -1.9689    0.5248 H   0  0
   -2.7118   -2.5274   -0.7744 H   0  0
    1.0457   -1.0462    2.5458 H   0  0
    0.6906   -2.8380    4.7587 H   0  0
   -0.9059   -4.5497    5.5749 H   0  0
   -2.9290   -5.1030    4.3123 H   0  0
   -3.4443   -3.9733    2.1812 H   0  0
    0.2114    2.0961   -0.1458 H   0  0
   -0.2773    1.5717    1.4268 H   0  0
    1.4232    1.1627   -4.0064 H   0  0
   -0.1147    0.3031   -4.0406 H   0  0
    1.3962   -0.5914   -3.8134 H   0  0
    1.9434    1.9639    1.0362 H   0  0
    4.5634   -2.1622    0.3875 H   0  0
    1.9496   -4.4569   -0.6096 H   0  0
    3.1220   -3.9952    0.6186 H   0  0
    3.3939   -3.5734   -1.0896 H   0  0
    6.5441   -1.6681    1.9752 H   0  0
    6.5431   -0.3478    3.1458 H   0  0
    7.8035   -0.4385    1.9077 H   0  0
    6.7259    1.8226    2.1784 H   0  0
    8.2525    3.1814    1.2758 H   0  0
    5.6562    1.7131   -1.4837 H   0  0
    7.4546    4.2022   -4.6723 H   0  0
    8.2482    2.7197   -5.2200 H   0  0
    8.9171    3.6247   -3.8567 H   0  0
    3.3543    2.1695   -1.4584 H   0  0
    2.7746    3.7961   -1.4019 H   0  0
    2.7538    3.1127   -3.6804 H   0  0
    4.3889    2.5162   -3.6412 H   0  0
    4.0757    4.2531   -3.5853 H   0  0
    5.4163    5.3266   -2.2012 H   0  0
    5.3591    7.1128   -0.7382 H   0  0
    5.4815    6.6768    1.7497 H   0  0
    3.7962    6.2237    1.3640 H   0  0
    5.7075    4.4218    3.6277 H   0  0
    3.9708    4.7920    3.3285 H   0  0
    5.0297    2.1001    3.6601 H   0  0
    3.4343    2.5705    3.1925 H   0  0
    3.4014    3.8255    0.8285 H   0  0
   11.3648    1.0681    0.3856 H   0  0
   10.6717    0.6855   -1.1928 H   0  0
   10.2981   -0.3290    0.2106 H   0  0
   -1.8408   -0.3854   -0.7717 H   0  0
    6.1744    4.4264    1.4473 H   0  0
  1  2  1  0
  1 58  1  0
  1 59  1  0
  1 60  1  0
  2  3  1  0
  2 61  1  0
  2 62  1  0
  3  4  2  0
  3  8  1  0
  4  5  1  0
  4 63  1  0
  5  6  1  0
  5 64  1  0
  5 20  1  0
  6  7  1  0
  6 65  1  0
  6 66  1  0
  7  8  1  0
  7  9  1  0
  7112  1  0
  8 67  1  0
  8 68  1  0
  9 10  1  0
  9 69  1  0
  9 70  1  0
 10 11  2  0
 10 18  1  0
 11 12  1  0
 11 19  1  0
 12 13  1  0
 12 71  1  0
 13 14  2  0
 13 18  1  0
 14 15  1  0
 14 72  1  0
 15 16  2  0
 15 73  1  0
 16 17  1  0
 16 74  1  0
 17 18  2  0
 17 75  1  0
 19 20  1  0
 19 21  1  0
 19 25  1  0
 20 76  1  0
 20 77  1  0
 21 22  2  0
 21 23  1  0
 23 24  1  0
 24 78  1  0
 24 79  1  0
 24 80  1  0
 25 26  2  0
 25 30  1  0
 26 27  1  0
 26 81  1  0
 27 28  2  0
 27 52  1  0
 28 29  1  0
 28 33  1  0
 29 30  2  0
 29 82  1  0
 30 31  1  0
 31 32  1  0
 32 83  1  0
 32 84  1  0
 32 85  1  0
 33 34  1  0
 33 35  1  0
 34 86  1  0
 34 87  1  0
 34 88  1  0
 35 36  1  0
 35 89  1  0
 35 52  1  0
 36 37  1  0
 36 38  1  0
 36 54  1  0
 37 90  1  0
 38 39  1  0
 38 43  1  0
 38 91  1  0
 39 40  1  0
 40 41  2  0
 40 42  1  0
 42 92  1  0
 42 93  1  0
 42 94  1  0
 43 44  1  0
 43 46  1  0
 43 53  1  0
 44 45  1  0
 44 95  1  0
 44 96  1  0
 45 97  1  0
 45 98  1  0
 45 99  1  0
 46 47  2  0
 46100  1  0
 47 48  1  0
 47101  1  0
 48 49  1  0
 48102  1  0
 48103  1  0
 49 50  1  0
 49 53  1  0
 49113  1  0
 50 51  1  0
 50104  1  0
 50105  1  0
 51 52  1  0
 51106  1  0
 51107  1  0
 52 53  1  0
 53108  1  0
 54 55  2  0
 54 56  1  0
 56 57  1  0
 57109  1  0
 57110  1  0
 57111  1  0
M  CHG  2   7   1  49   1
M  END
> <Mol2_MolInfo_Name>
14460

> <Mol2_MolInfo_Type>
SMALL

> <Mol2_MolInfo_Charge>
USER_CHARGES

> <Mol2_Substructures>
     1 ****        1 GROUP             0       ****    0 ROOT    

> <Name>
14460

$$$$
14460
  SciTegic06232017503D

113121  0  0  0  0            999 V2000
   -3.0593    4.9955    2.6154 C   0  0
   -3.7402    4.3860    1.3814 C   0  0
   -3.3386    2.9440    1.1051 C   0  0
   -2.5743    2.6171    0.0380 C   0  0
   -2.1004    1.2047   -0.3072 C   0  0  2  0  0  0
   -2.9428    0.1580    0.4781 C   0  0
   -3.0930    0.5562    1.9642 N   0  3  2  0  0  0
   -3.8965    1.8776    2.0557 C   0  0
   -1.7542    0.6490    2.7388 C   0  0
   -0.8827   -0.5774    2.5001 C   0  0
   -0.0927   -0.9154    1.3850 C   0  0
    0.5564   -2.0955    1.6908 N   0  0
    0.2138   -2.5676    2.9312 C   0  0
    0.6185   -3.7149    3.6220 C   0  0
    0.0791   -3.9095    4.8932 C   0  0
   -0.8190   -3.0055    5.4532 C   0  0
   -1.2169   -1.8638    4.7594 C   0  0
   -0.7015   -1.6259    3.4725 C   0  0
    0.1889   -0.2403    0.0072 C   0  0  2  0  0  0
   -0.5446    1.1461   -0.1396 C   0  0
   -0.2991   -1.1829   -1.1587 C   0  0
   -0.6118   -2.3629   -0.9725 O   0  0
   -0.3533   -0.5648   -2.3674 O   0  0
   -0.7699   -1.2719   -3.5264 C   0  0
    1.7428    0.0248   -0.0821 C   0  0
    2.5243   -0.4221   -1.1703 C   0  0
    3.9066   -0.2589   -1.2063 C   0  0
    4.5357    0.4137   -0.1692 C   0  0
    3.8018    0.9188    0.8950 C   0  0
    2.4105    0.7243    0.9596 C   0  0
    1.6588    1.1965    2.0227 O   0  0
    2.2880    1.8461    3.1221 C   0  0
    5.8911    0.4719   -0.4719 N   0  0
    6.7392    1.6571   -0.4207 C   0  0
    6.2527   -0.4963   -1.5120 C   0  0  1  0  0  0
    7.0095   -1.8100   -1.0460 C   0  0  2  0  0  0
    7.7938   -2.2583   -2.1465 O   0  0
    5.9927   -2.9244   -0.6180 C   0  0  2  0  0  0
    6.6650   -4.0607   -0.0382 O   0  0
    6.3727   -4.5342    1.1974 C   0  0
    5.5260   -4.0866    1.9717 O   0  0
    7.2336   -5.7337    1.5700 C   0  0
    4.9266   -3.3570   -1.7039 C   0  0  2  0  0  0
    3.6468   -3.7891   -0.9093 C   0  0
    2.4149   -4.2226   -1.7309 C   0  0
    5.3775   -4.6156   -2.4782 C   0  0
    5.5397   -4.7074   -3.8123 C   0  0
    5.3451   -3.5488   -4.7705 C   0  0
    5.5539   -2.2484   -3.9759 N   0  3  1  0  0  0
    5.2755   -0.9267   -4.7071 C   0  0
    4.7997    0.0196   -3.5961 C   0  0
    4.9017   -0.7357   -2.2497 C   0  0  2  0  0  0
    4.6485   -2.1844   -2.7295 C   0  0  2  0  0  0
    8.0200   -1.4921    0.1112 C   0  0
    9.2406   -1.4239   -0.0697 O   0  0
    7.4136   -1.3214    1.3126 O   0  0
    8.1736   -1.0335    2.4765 C   0  0
   -3.3644    6.0332    2.7525 H   0  0
   -1.9735    4.9815    2.5138 H   0  0
   -3.3167    4.4558    3.5269 H   0  0
   -4.8238    4.4278    1.4997 H   0  0
   -3.5131    5.0081    0.5138 H   0  0
   -2.2348    3.4216   -0.5992 H   0  0
   -2.3233    1.0388   -1.3621 H   0  0
   -3.9659    0.1222    0.0990 H   0  0
   -2.5740   -0.8647    0.4376 H   0  0
   -3.9079    2.1794    3.1037 H   0  0
   -4.9099    1.6149    1.7490 H   0  0
   -1.2858    1.5950    2.4793 H   0  0
   -2.0720    0.7351    3.7784 H   0  0
    1.1921   -2.5311    1.0386 H   0  0
    1.3167   -4.4223    3.1988 H   0  0
    0.3665   -4.7839    5.4590 H   0  0
   -1.2124   -3.1922    6.4420 H   0  0
   -1.9138   -1.1754    5.2136 H   0  0
   -0.1224    1.6671   -1.0021 H   0  0
   -0.2430    1.7952    0.6776 H   0  0
   -0.7465   -0.6102   -4.3922 H   0  0
   -1.7887   -1.6456   -3.4124 H   0  0
   -0.1102   -2.1175   -3.7267 H   0  0
    2.0856   -0.9495   -2.0005 H   0  0
    4.3270    1.4505    1.6732 H   0  0
    1.5302    2.1185    3.8566 H   0  0
    2.7913    2.7630    2.8122 H   0  0
    3.0051    1.1892    3.6170 H   0  0
    6.4461    2.3024    0.4080 H   0  0
    6.6539    2.2325   -1.3432 H   0  0
    7.7855    1.3855   -0.2787 H   0  0
    6.9200    0.0134   -2.2116 H   0  0
    8.2526   -3.0603   -1.8830 H   0  0
    5.4269   -2.4486    0.1857 H   0  0
    7.1257   -6.5238    0.8269 H   0  0
    6.9399   -6.1320    2.5416 H   0  0
    8.2834   -5.4440    1.6203 H   0  0
    3.8916   -4.6155   -0.2408 H   0  0
    3.3309   -2.9804   -0.2493 H   0  0
    1.6314   -4.5940   -1.0698 H   0  0
    2.6520   -5.0227   -2.4320 H   0  0
    1.9806   -3.3974   -2.2935 H   0  0
    5.5578   -5.5202   -1.9143 H   0  0
    5.8390   -5.6636   -4.2164 H   0  0
    6.0878   -3.5400   -5.5690 H   0  0
    4.3398   -3.5499   -5.1947 H   0  0
    6.2105   -0.6355   -5.1868 H   0  0
    4.4955   -1.1152   -5.4466 H   0  0
    5.3494    0.9618   -3.5829 H   0  0
    3.7642    0.3032   -3.7933 H   0  0
    3.6491   -2.2732   -3.1595 H   0  0
    7.5094   -0.9284    3.3341 H   0  0
    8.7298   -0.1020    2.3607 H   0  0
    8.8806   -1.8362    2.6907 H   0  0
   -3.6430   -0.1683    2.4039 H   0  0
    6.5082   -2.2214   -3.6419 H   0  0
  1  2  1  0
  1 58  1  0
  1 59  1  0
  1 60  1  0
  2  3  1  0
  2 61  1  0
  2 62  1  0
  3  4  2  0
  3  8  1  0
  4  5  1  0
  4 63  1  0
  5  6  1  0
  5 64  1  0
  5 20  1  0
  6  7  1  0
  6 65  1  0
  6 66  1  0
  7  8  1  0
  7  9  1  0
  7112  1  0
  8 67  1  0
  8 68  1  0
  9 10  1  0
  9 69  1  0
  9 70  1  0
 10 11  2  0
 10 18  1  0
 11 12  1  0
 11 19  1  0
 12 13  1  0
 12 71  1  0
 13 14  2  0
 13 18  1  0
 14 15  1  0
 14 72  1  0
 15 16  2  0
 15 73  1  0
 16 17  1  0
 16 74  1  0
 17 18  2  0
 17 75  1  0
 19 20  1  0
 19 21  1  0
 19 25  1  0
 20 76  1  0
 20 77  1  0
 21 22  2  0
 21 23  1  0
 23 24  1  0
 24 78  1  0
 24 79  1  0
 24 80  1  0
 25 26  2  0
 25 30  1  0
 26 27  1  0
 26 81  1  0
 27 28  2  0
 27 52  1  0
 28 29  1  0
 28 33  1  0
 29 30  2  0
 29 82  1  0
 30 31  1  0
 31 32  1  0
 32 83  1  0
 32 84  1  0
 32 85  1  0
 33 34  1  0
 33 35  1  0
 34 86  1  0
 34 87  1  0
 34 88  1  0
 35 36  1  0
 35 89  1  0
 35 52  1  0
 36 37  1  0
 36 38  1  0
 36 54  1  0
 37 90  1  0
 38 39  1  0
 38 43  1  0
 38 91  1  0
 39 40  1  0
 40 41  2  0
 40 42  1  0
 42 92  1  0
 42 93  1  0
 42 94  1  0
 43 44  1  0
 43 46  1  0
 43 53  1  0
 44 45  1  0
 44 95  1  0
 44 96  1  0
 45 97  1  0
 45 98  1  0
 45 99  1  0
 46 47  2  0
 46100  1  0
 47 48  1  0
 47101  1  0
 48 49  1  0
 48102  1  0
 48103  1  0
 49 50  1  0
 49 53  1  0
 49113  1  0
 50 51  1  0
 50104  1  0
 50105  1  0
 51 52  1  0
 51106  1  0
 51107  1  0
 52 53  1  0
 53108  1  0
 54 55  2  0
 54 56  1  0
 56 57  1  0
 57109  1  0
 57110  1  0
 57111  1  0
M  CHG  2   7   1  49   1
M  END
> <Mol2_MolInfo_Name>
14460

> <Mol2_MolInfo_Type>
SMALL

> <Mol2_MolInfo_Charge>
USER_CHARGES

> <Mol2_Substructures>
     1 ****        1 GROUP             0       ****    0 ROOT    

> <Name>
14460

$$$$
14460
  SciTegic06232017503D

113121  0  0  0  0            999 V2000
   -2.9381    5.6211   -0.2780 C   0  0
   -3.6935    4.5261   -1.0528 C   0  0
   -3.3879    3.0703   -0.7004 C   0  0
   -2.5113    2.6984    0.2638 C   0  0
   -2.1473    1.2556    0.6195 C   0  0  1  0  0  0
   -3.1903    0.2763    0.0095 C   0  0
   -3.5020    0.6354   -1.4601 N   0  3  1  0  0  0
   -4.1766    2.0294   -1.5046 C   0  0
   -2.2764    0.5674   -2.4053 C   0  0
   -1.5029   -0.7335   -2.2347 C   0  0
   -0.6048   -1.1220   -1.2216 C   0  0
   -0.1030   -2.3574   -1.5808 N   0  0
   -0.6561   -2.8229   -2.7457 C   0  0
   -0.4531   -4.0157   -3.4483 C   0  0
   -1.1796   -4.1864   -4.6265 C   0  0
   -2.0664   -3.2171   -5.0861 C   0  0
   -2.2628   -2.0308   -4.3814 C   0  0
   -1.5534   -1.8147   -3.1861 C   0  0
   -0.0825   -0.4484    0.0876 C   0  0  1  0  0  0
   -0.6411    1.0153    0.2607 C   0  0
   -0.5107   -1.2618    1.3711 C   0  0
   -0.4686   -0.7463    2.4936 O   0  0
   -0.9257   -2.5317    1.1406 O   0  0
   -1.3401   -3.3692    2.2099 C   0  0
    1.4894   -0.3257   -0.0064 C   0  0
    2.3454   -0.7401    1.0374 C   0  0
    3.7313   -0.6130    0.9606 C   0  0
    4.3023   -0.0669   -0.1793 C   0  0
    3.4928    0.3886   -1.2144 C   0  0
    2.0944    0.2608   -1.1494 C   0  0
    1.2743    0.7142   -2.1695 O   0  0
    1.8312    1.2916   -3.3454 C   0  0
    5.6726    0.0633    0.0423 N   0  0
    6.6438    0.0884   -1.0502 C   0  0
    6.0767   -0.7688    1.1904 C   0  0  1  0  0  0
    7.2817   -0.3056    2.1036 C   0  0  2  0  0  0
    7.5154   -1.3225    3.0724 O   0  0
    6.9468    1.0557    2.8181 C   0  0  2  0  0  0
    7.9737    1.3628    3.7830 O   0  0
    8.4960    2.6066    3.9213 C   0  0
    8.1643    3.6117    3.2924 O   0  0
    9.5823    2.6595    4.9872 C   0  0
    5.4580    1.2424    3.3573 C   0  0  2  0  0  0
    4.8219    2.4118    2.5343 C   0  0
    3.3396    2.7373    2.8112 C   0  0
    5.4349    1.7182    4.8286 C   0  0
    5.0282    0.9915    5.8885 C   0  0
    4.5282   -0.4405    5.8015 C   0  0
    4.9777   -1.0326    4.4510 N   0  3  1  0  0  0
    4.3431   -2.3632    4.0432 C   0  0
    4.6113   -2.4324    2.5399 C   0  0
    4.7700   -0.9791    2.0051 C   0  0  2  0  0  0
    4.6255   -0.0960    3.2791 C   0  0  2  0  0  0
    8.6157   -0.2396    1.2975 C   0  0
    9.2369    0.8155    1.1404 O   0  0
    8.9904   -1.4381    0.7783 O   0  0
   10.1710   -1.5524   -0.0023 C   0  0
   -3.2343    6.6119   -0.6238 H   0  0
   -1.8597    5.5365   -0.4171 H   0  0
   -3.1488    5.5724    0.7910 H   0  0
   -4.7652    4.6831   -0.9234 H   0  0
   -3.4951    4.6579   -2.1173 H   0  0
   -1.9904    3.4710    0.8090 H   0  0
   -2.2447    1.1596    1.7018 H   0  0
   -2.9221   -0.7774    0.0496 H   0  0
   -4.1498    0.3616    0.5235 H   0  0
   -5.1575    1.8859   -1.0490 H   0  0
   -4.3056    2.2945   -2.5553 H   0  0
   -2.7205    0.6586   -3.3970 H   0  0
   -1.6857    1.4661   -2.2481 H   0  0
    0.5801   -2.8343   -1.0102 H   0  0
    0.2336   -4.7746   -3.1029 H   0  0
   -1.0503   -5.0936   -5.1987 H   0  0
   -2.6092   -3.3877   -6.0045 H   0  0
   -2.9545   -1.2917   -4.7571 H   0  0
   -0.3766    1.5999   -0.6167 H   0  0
   -0.0610    1.5118    1.0426 H   0  0
   -1.6361   -4.3439    1.8219 H   0  0
   -2.1937   -2.9393    2.7359 H   0  0
   -0.5308   -3.5200    2.9260 H   0  0
    1.9585   -1.1700    1.9467 H   0  0
    3.9610    0.8619   -2.0627 H   0  0
    1.0245    1.5570   -4.0285 H   0  0
    2.4852    0.5902   -3.8655 H   0  0
    2.3851    2.2040   -3.1196 H   0  0
    6.1795    0.4171   -1.9798 H   0  0
    7.0750   -0.8964   -1.2342 H   0  0
    7.4445    0.7971   -0.8455 H   0  0
    6.3410   -1.7359    0.7550 H   0  0
    8.2109   -1.0210    3.6625 H   0  0
    7.0785    1.7973    2.0266 H   0  0
    9.2099    2.2580    5.9297 H   0  0
    9.9077    3.6865    5.1558 H   0  0
   10.4460    2.0724    4.6744 H   0  0
    5.4016    3.3238    2.6893 H   0  0
    4.9118    2.2075    1.4686 H   0  0
    3.0337    3.6237    2.2548 H   0  0
    3.1553    2.9380    3.8665 H   0  0
    2.6799    1.9275    2.5003 H   0  0
    5.7820    2.7193    5.0432 H   0  0
    5.0684    1.4619    6.8605 H   0  0
    4.9481   -1.0820    6.5771 H   0  0
    3.4385   -0.4658    5.8503 H   0  0
    4.7994   -3.1535    4.6402 H   0  0
    3.2824   -2.2886    4.2897 H   0  0
    5.5075   -3.0314    2.3732 H   0  0
    3.7829   -2.9602    2.0654 H   0  0
    3.5656    0.0960    3.4623 H   0  0
   10.3051   -2.5864   -0.3198 H   0  0
   11.0506   -1.2562    0.5712 H   0  0
   10.1118   -0.9272   -0.8946 H   0  0
   -4.1746   -0.0429   -1.7894 H   0  0
    5.9804   -1.1594    4.4642 H   0  0
  1  2  1  0
  1 58  1  0
  1 59  1  0
  1 60  1  0
  2  3  1  0
  2 61  1  0
  2 62  1  0
  3  4  2  0
  3  8  1  0
  4  5  1  0
  4 63  1  0
  5  6  1  0
  5 64  1  0
  5 20  1  0
  6  7  1  0
  6 65  1  0
  6 66  1  0
  7  8  1  0
  7  9  1  0
  7112  1  0
  8 67  1  0
  8 68  1  0
  9 10  1  0
  9 69  1  0
  9 70  1  0
 10 11  2  0
 10 18  1  0
 11 12  1  0
 11 19  1  0
 12 13  1  0
 12 71  1  0
 13 14  2  0
 13 18  1  0
 14 15  1  0
 14 72  1  0
 15 16  2  0
 15 73  1  0
 16 17  1  0
 16 74  1  0
 17 18  2  0
 17 75  1  0
 19 20  1  0
 19 21  1  0
 19 25  1  0
 20 76  1  0
 20 77  1  0
 21 22  2  0
 21 23  1  0
 23 24  1  0
 24 78  1  0
 24 79  1  0
 24 80  1  0
 25 26  2  0
 25 30  1  0
 26 27  1  0
 26 81  1  0
 27 28  2  0
 27 52  1  0
 28 29  1  0
 28 33  1  0
 29 30  2  0
 29 82  1  0
 30 31  1  0
 31 32  1  0
 32 83  1  0
 32 84  1  0
 32 85  1  0
 33 34  1  0
 33 35  1  0
 34 86  1  0
 34 87  1  0
 34 88  1  0
 35 36  1  0
 35 89  1  0
 35 52  1  0
 36 37  1  0
 36 38  1  0
 36 54  1  0
 37 90  1  0
 38 39  1  0
 38 43  1  0
 38 91  1  0
 39 40  1  0
 40 41  2  0
 40 42  1  0
 42 92  1  0
 42 93  1  0
 42 94  1  0
 43 44  1  0
 43 46  1  0
 43 53  1  0
 44 45  1  0
 44 95  1  0
 44 96  1  0
 45 97  1  0
 45 98  1  0
 45 99  1  0
 46 47  2  0
 46100  1  0
 47 48  1  0
 47101  1  0
 48 49  1  0
 48102  1  0
 48103  1  0
 49 50  1  0
 49 53  1  0
 49113  1  0
 50 51  1  0
 50104  1  0
 50105  1  0
 51 52  1  0
 51106  1  0
 51107  1  0
 52 53  1  0
 53108  1  0
 54 55  2  0
 54 56  1  0
 56 57  1  0
 57109  1  0
 57110  1  0
 57111  1  0
M  CHG  2   7   1  49   1
M  END
> <Mol2_MolInfo_Name>
14460

> <Mol2_MolInfo_Type>
SMALL

> <Mol2_MolInfo_Charge>
USER_CHARGES

> <Mol2_Substructures>
     1 ****        1 GROUP             0       ****    0 ROOT    

> <Name>
14460

$$$$
14460
  SciTegic06232017503D

113121  0  0  0  0            999 V2000
   -4.3785   -0.7110    3.9496 C   0  0
   -4.1985    0.6737    3.3045 C   0  0
   -3.5201    0.6910    1.9370 C   0  0
   -2.5740    1.6226    1.6312 C   0  0
   -1.8956    1.7660    0.2497 C   0  0  2  0  0  0
   -2.6879    0.9810   -0.8075 C   0  0
   -2.8465   -0.4009   -0.1569 N   0  3  1  0  0  0
   -3.9433   -0.3857    0.9172 C   0  0
   -2.6313   -1.6112   -1.0608 C   0  0
   -1.2227   -1.4497   -1.6262 C   0  0
   -0.0881   -0.7849   -1.0859 C   0  0
    0.8600   -0.7861   -2.0919 N   0  0
    0.4687   -1.5005   -3.1940 C   0  0
    1.1375   -1.7889   -4.3887 C   0  0
    0.4452   -2.5487   -5.3316 C   0  0
   -0.8526   -2.9962   -5.1003 C   0  0
   -1.5133   -2.6999   -3.9089 C   0  0
   -0.8508   -1.9438   -2.9258 C   0  0
    0.2490   -0.0395    0.2646 C   0  0  1  0  0  0
   -0.3557    1.4416    0.2434 C   0  0
   -0.2652   -0.7635    1.5524 C   0  0
   -0.8431   -1.8528    1.5186 O   0  0
    0.0273   -0.0780    2.6880 O   0  0
   -0.2951   -0.6041    3.9651 C   0  0
    1.8201   -0.0440    0.4404 C   0  0
    2.5488    1.1617    0.4381 C   0  0
    3.9424    1.1821    0.4864 C   0  0
    4.6331   -0.0161    0.5949 C   0  0
    3.9544   -1.2267    0.6231 C   0  0
    2.5537   -1.2604    0.5168 C   0  0
    1.8499   -2.4520    0.4569 O   0  0
    2.5373   -3.6975    0.5035 C   0  0
    5.9855    0.2865    0.6942 N   0  0
    6.9041   -0.2482    1.6941 C   0  0
    6.2672    1.6650    0.2789 C   0  0  1  0  0  0
    7.0104    1.8667   -1.1071 C   0  0  2  0  0  0
    7.6934    3.1171   -1.0529 O   0  0
    6.0015    1.8741   -2.3176 C   0  0  2  0  0  0
    6.6998    2.0274   -3.5732 O   0  0
    6.8585    1.0315   -4.4790 C   0  0
    6.4577   -0.1279   -4.3743 O   0  0
    7.6170    1.4977   -5.7141 C   0  0
    4.7930    2.9002   -2.2147 C   0  0  2  0  0  0
    3.4930    2.2219   -2.7727 C   0  0
    3.4425    1.7695   -4.2449 C   0  0
    5.0204    4.1646   -3.0783 C   0  0
    5.0786    5.4348   -2.6336 C   0  0
    4.9634    5.8306   -1.1753 C   0  0
    5.3500    4.6072   -0.3261 N   0  3  1  0  0  0
    5.1463    4.7299    1.1912 C   0  0
    4.7919    3.3068    1.6402 C   0  0
    4.8866    2.3709    0.4117 C   0  0  2  0  0  0
    4.5328    3.3611   -0.7228 C   0  0  2  0  0  0
    8.0999    0.7505   -1.2919 C   0  0
    7.7939   -0.3698   -1.7098 O   0  0
    9.3615    1.1104   -0.9296 O   0  0
   10.4385    0.1916   -1.0431 C   0  0
   -4.7547   -0.6158    4.9685 H   0  0
   -3.4424   -1.2657    3.9945 H   0  0
   -5.0976   -1.3179    3.3985 H   0  0
   -5.1803    1.1349    3.1916 H   0  0
   -3.6466    1.3141    3.9949 H   0  0
   -2.3073    2.3402    2.3939 H   0  0
   -1.9913    2.8210   -0.0120 H   0  0
   -3.6920    1.3789   -0.9679 H   0  0
   -2.1872    0.9173   -1.7737 H   0  0
   -3.9511   -1.3907    1.3393 H   0  0
   -4.8917   -0.1770    0.4210 H   0  0
   -2.7551   -2.4924   -0.4304 H   0  0
   -3.4365   -1.5572   -1.7946 H   0  0
    1.7566   -0.3401   -1.9630 H   0  0
    2.1434   -1.4443   -4.5802 H   0  0
    0.9273   -2.7952   -6.2665 H   0  0
   -1.3555   -3.5801   -5.8575 H   0  0
   -2.5215   -3.0522   -3.7492 H   0  0
    0.0450    1.9293   -0.6473 H   0  0
    0.0555    2.0106    1.0790 H   0  0
    0.1220    0.0364    4.7424 H   0  0
    0.1149   -1.6067    4.0965 H   0  0
   -1.3735   -0.6460    4.1055 H   0  0
    2.0549    2.1141    0.3464 H   0  0
    4.5290   -2.1367    0.7021 H   0  0
    1.8126   -4.5081    0.4303 H   0  0
    3.0769   -3.8214    1.4436 H   0  0
    3.2335   -3.8028   -0.3299 H   0  0
    6.6697   -1.2913    1.9080 H   0  0
    6.8260    0.3127    2.6261 H   0  0
    7.9380   -0.2036    1.3517 H   0  0
    6.9214    2.0973    1.0400 H   0  0
    8.3636    3.0676   -0.3667 H   0  0
    5.5527    0.8784   -2.3173 H   0  0
    7.0839    2.3158   -6.1988 H   0  0
    7.7231    0.6839   -6.4317 H   0  0
    8.6126    1.8452   -5.4380 H   0  0
    3.2598    1.3444   -2.1717 H   0  0
    2.6505    2.8986   -2.6186 H   0  0
    2.4338    1.4442   -4.5016 H   0  0
    4.0909    0.9171   -4.4276 H   0  0
    3.7070    2.5624   -4.9429 H   0  0
    5.1477    4.0417   -4.1437 H   0  0
    5.2359    6.2143   -3.3653 H   0  0
    5.6594    6.6247   -0.9025 H   0  0
    3.9432    6.1282   -0.9287 H   0  0
    6.0811    5.1161    1.5987 H   0  0
    4.3233    5.4259    1.3623 H   0  0
    5.4072    2.9615    2.4722 H   0  0
    3.7738    3.3101    2.0338 H   0  0
    3.5005    3.7055   -0.6099 H   0  0
   11.3627    0.6606   -0.7053 H   0  0
   10.5763   -0.1236   -2.0787 H   0  0
   10.2636   -0.6947   -0.4313 H   0  0
   -2.0062   -0.4686    0.4006 H   0  0
    6.3211    4.3809   -0.4946 H   0  0
  1  2  1  0
  1 58  1  0
  1 59  1  0
  1 60  1  0
  2  3  1  0
  2 61  1  0
  2 62  1  0
  3  4  2  0
  3  8  1  0
  4  5  1  0
  4 63  1  0
  5  6  1  0
  5 64  1  0
  5 20  1  0
  6  7  1  0
  6 65  1  0
  6 66  1  0
  7  8  1  0
  7  9  1  0
  7112  1  0
  8 67  1  0
  8 68  1  0
  9 10  1  0
  9 69  1  0
  9 70  1  0
 10 11  2  0
 10 18  1  0
 11 12  1  0
 11 19  1  0
 12 13  1  0
 12 71  1  0
 13 14  2  0
 13 18  1  0
 14 15  1  0
 14 72  1  0
 15 16  2  0
 15 73  1  0
 16 17  1  0
 16 74  1  0
 17 18  2  0
 17 75  1  0
 19 20  1  0
 19 21  1  0
 19 25  1  0
 20 76  1  0
 20 77  1  0
 21 22  2  0
 21 23  1  0
 23 24  1  0
 24 78  1  0
 24 79  1  0
 24 80  1  0
 25 26  2  0
 25 30  1  0
 26 27  1  0
 26 81  1  0
 27 28  2  0
 27 52  1  0
 28 29  1  0
 28 33  1  0
 29 30  2  0
 29 82  1  0
 30 31  1  0
 31 32  1  0
 32 83  1  0
 32 84  1  0
 32 85  1  0
 33 34  1  0
 33 35  1  0
 34 86  1  0
 34 87  1  0
 34 88  1  0
 35 36  1  0
 35 89  1  0
 35 52  1  0
 36 37  1  0
 36 38  1  0
 36 54  1  0
 37 90  1  0
 38 39  1  0
 38 43  1  0
 38 91  1  0
 39 40  1  0
 40 41  2  0
 40 42  1  0
 42 92  1  0
 42 93  1  0
 42 94  1  0
 43 44  1  0
 43 46  1  0
 43 53  1  0
 44 45  1  0
 44 95  1  0
 44 96  1  0
 45 97  1  0
 45 98  1  0
 45 99  1  0
 46 47  2  0
 46100  1  0
 47 48  1  0
 47101  1  0
 48 49  1  0
 48102  1  0
 48103  1  0
 49 50  1  0
 49 53  1  0
 49113  1  0
 50 51  1  0
 50104  1  0
 50105  1  0
 51 52  1  0
 51106  1  0
 51107  1  0
 52 53  1  0
 53108  1  0
 54 55  2  0
 54 56  1  0
 56 57  1  0
 57109  1  0
 57110  1  0
 57111  1  0
M  CHG  2   7   1  49   1
M  END
> <Mol2_MolInfo_Name>
14460

> <Mol2_MolInfo_Type>
SMALL

> <Mol2_MolInfo_Charge>
USER_CHARGES

> <Mol2_Substructures>
     1 ****        1 GROUP             0       ****    0 ROOT    

> <Name>
14460

$$$$
14460
  SciTegic06232017503D

113121  0  0  0  0            999 V2000
    3.7196    4.5302   -3.1689 C   0  0
    3.4280    3.6596   -1.9390 C   0  0
    2.1081    2.9058   -2.0139 C   0  0
    1.1005    3.1404   -1.1296 C   0  0
   -0.2518    2.3990   -1.1301 C   0  0  1  0  0  0
   -0.4663    1.7119   -2.4832 C   0  0
    0.8310    0.9129   -2.6658 N   0  3  2  0  0  0
    1.9900    1.8219   -3.1013 C   0  0
    0.6411   -0.4806   -3.2495 C   0  0
   -0.1844   -1.2364   -2.2093 C   0  0
   -0.3147   -1.0193   -0.8068 C   0  0
   -1.2721   -1.9262   -0.3842 N   0  0
   -1.7047   -2.7589   -1.3843 C   0  0
   -2.6193   -3.8179   -1.3705 C   0  0
   -2.8480   -4.4715   -2.5816 C   0  0
   -2.1998   -4.0892   -3.7527 C   0  0
   -1.2910   -3.0323   -3.7580 C   0  0
   -1.0272   -2.3477   -2.5584 C   0  0
    0.3255    0.0121    0.2207 C   0  0  1  0  0  0
   -0.4434    1.4170    0.0828 C   0  0
    0.1847   -0.5677    1.6821 C   0  0
    0.5959   -1.7019    1.9537 O   0  0
   -0.4101    0.2566    2.5788 O   0  0
   -0.5766   -0.1380    3.9326 C   0  0
    1.8907    0.1407    0.1178 C   0  0
    2.6256   -0.8087   -0.6188 C   0  0
    4.0162   -0.7688   -0.7031 C   0  0
    4.7008    0.2452   -0.0507 C   0  0
    4.0209    1.1875    0.7076 C   0  0
    2.6217    1.1301    0.8305 C   0  0
    1.9274    2.0071    1.6441 O   0  0
    2.6179    3.0138    2.3770 C   0  0
    6.0486    0.1015   -0.3529 N   0  0
    6.9386    1.1607   -0.8155 C   0  0
    6.3455   -1.2295   -0.8912 C   0  0  1  0  0  0
    7.1119   -2.2496    0.0504 C   0  0  2  0  0  0
    7.8038   -3.1565   -0.8031 O   0  0
    6.1275   -3.0499    0.9831 C   0  0  2  0  0  0
    6.8518   -3.9414    1.8588 O   0  0
    7.0415   -3.7106    3.1815 C   0  0
    6.6350   -2.7416    3.8228 O   0  0
    7.8469   -4.8183    3.8465 C   0  0
    4.9413   -3.8115    0.2522 C   0  0  2  0  0  0
    3.6452   -3.7025    1.1282 C   0  0
    3.6412   -4.2957    2.5508 C   0  0
    5.2233   -5.3255    0.0969 C   0  0
    5.2808   -6.0110   -1.0612 C   0  0
    5.1144   -5.3813   -2.4291 C   0  0
    5.4634   -3.8886   -2.3003 N   0  3  1  0  0  0
    5.2202   -3.0146   -3.5387 C   0  0
    4.8507   -1.6430   -2.9622 C   0  0
    4.9655   -1.7145   -1.4209 C   0  0  2  0  0  0
    4.6459   -3.2093   -1.1827 C   0  0  2  0  0  0
    8.2171   -1.5087    0.8811 C   0  0
    9.4240   -1.6296    0.6437 O   0  0
    7.7092   -0.7448    1.8791 O   0  0
    8.5656   -0.0056    2.7371 C   0  0
    4.6709    5.0513   -3.0585 H   0  0
    2.9451    5.2849   -3.3116 H   0  0
    3.7770    3.9318   -4.0786 H   0  0
    4.2304    2.9319   -1.8105 H   0  0
    3.4505    4.2861   -1.0456 H   0  0
    1.2567    3.8951   -0.3718 H   0  0
   -1.0192    3.1701   -1.0437 H   0  0
   -1.3407    1.0604   -2.5049 H   0  0
   -0.5369    2.4154   -3.3152 H   0  0
    1.7463    2.2164   -4.0886 H   0  0
    2.8770    1.1890   -3.1526 H   0  0
    0.1504   -0.3218   -4.2111 H   0  0
    1.6364   -0.8912   -3.4073 H   0  0
   -1.5651   -1.9620    0.5818 H   0  0
   -3.1302   -4.1224   -0.4687 H   0  0
   -3.5478   -5.2941   -2.6126 H   0  0
   -2.4070   -4.6188   -4.6713 H   0  0
   -0.8009   -2.7472   -4.6770 H   0  0
   -0.3186    2.0385    0.9677 H   0  0
   -1.5096    1.1829    0.1102 H   0  0
   -1.0584    0.6623    4.4945 H   0  0
    0.3867   -0.3482    4.3998 H   0  0
   -1.2007   -1.0297    4.0068 H   0  0
    2.1256   -1.6269   -1.1088 H   0  0
    4.5950    1.9496    1.2111 H   0  0
    1.8977    3.5922    2.9555 H   0  0
    3.1377    3.7052    1.7121 H   0  0
    3.3319    2.5805    3.0789 H   0  0
    6.6960    2.1044   -0.3262 H   0  0
    6.8394    1.3034   -1.8921 H   0  0
    7.9803    0.9285   -0.5937 H   0  0
    6.9892   -1.0800   -1.7619 H   0  0
    8.2823   -3.7829   -0.2537 H   0  0
    5.6533   -2.2932    1.6120 H   0  0
    7.3024   -5.7612    3.7991 H   0  0
    8.0353   -4.5820    4.8940 H   0  0
    8.8061   -4.9437    3.3442 H   0  0
    3.3665   -2.6543    1.2276 H   0  0
    2.8151   -4.1616    0.5879 H   0  0
    2.6342   -4.2608    2.9676 H   0  0
    4.2700   -3.7228    3.2271 H   0  0
    3.9601   -5.3365    2.5797 H   0  0
    5.3886   -5.9103    0.9897 H   0  0
    5.4758   -7.0725   -1.0059 H   0  0
    5.8054   -5.7947   -3.1644 H   0  0
    4.0877   -5.4788   -2.7855 H   0  0
    6.1453   -3.0313   -4.1157 H   0  0
    4.3953   -3.4550   -4.1012 H   0  0
    5.4464   -0.8332   -3.3855 H   0  0
    3.8274   -1.4111   -3.2542 H   0  0
    3.6135   -3.4219   -1.4759 H   0  0
    7.9716    0.5412    3.4692 H   0  0
    9.1574    0.7158    2.1718 H   0  0
    9.2455   -0.6669    3.2766 H   0  0
    1.0816    0.6768   -1.7152 H   0  0
    6.4370   -3.7955   -2.0424 H   0  0
  1  2  1  0
  1 58  1  0
  1 59  1  0
  1 60  1  0
  2  3  1  0
  2 61  1  0
  2 62  1  0
  3  4  2  0
  3  8  1  0
  4  5  1  0
  4 63  1  0
  5  6  1  0
  5 64  1  0
  5 20  1  0
  6  7  1  0
  6 65  1  0
  6 66  1  0
  7  8  1  0
  7  9  1  0
  7112  1  0
  8 67  1  0
  8 68  1  0
  9 10  1  0
  9 69  1  0
  9 70  1  0
 10 11  2  0
 10 18  1  0
 11 12  1  0
 11 19  1  0
 12 13  1  0
 12 71  1  0
 13 14  2  0
 13 18  1  0
 14 15  1  0
 14 72  1  0
 15 16  2  0
 15 73  1  0
 16 17  1  0
 16 74  1  0
 17 18  2  0
 17 75  1  0
 19 20  1  0
 19 21  1  0
 19 25  1  0
 20 76  1  0
 20 77  1  0
 21 22  2  0
 21 23  1  0
 23 24  1  0
 24 78  1  0
 24 79  1  0
 24 80  1  0
 25 26  2  0
 25 30  1  0
 26 27  1  0
 26 81  1  0
 27 28  2  0
 27 52  1  0
 28 29  1  0
 28 33  1  0
 29 30  2  0
 29 82  1  0
 30 31  1  0
 31 32  1  0
 32 83  1  0
 32 84  1  0
 32 85  1  0
 33 34  1  0
 33 35  1  0
 34 86  1  0
 34 87  1  0
 34 88  1  0
 35 36  1  0
 35 89  1  0
 35 52  1  0
 36 37  1  0
 36 38  1  0
 36 54  1  0
 37 90  1  0
 38 39  1  0
 38 43  1  0
 38 91  1  0
 39 40  1  0
 40 41  2  0
 40 42  1  0
 42 92  1  0
 42 93  1  0
 42 94  1  0
 43 44  1  0
 43 46  1  0
 43 53  1  0
 44 45  1  0
 44 95  1  0
 44 96  1  0
 45 97  1  0
 45 98  1  0
 45 99  1  0
 46 47  2  0
 46100  1  0
 47 48  1  0
 47101  1  0
 48 49  1  0
 48102  1  0
 48103  1  0
 49 50  1  0
 49 53  1  0
 49113  1  0
 50 51  1  0
 50104  1  0
 50105  1  0
 51 52  1  0
 51106  1  0
 51107  1  0
 52 53  1  0
 53108  1  0
 54 55  2  0
 54 56  1  0
 56 57  1  0
 57109  1  0
 57110  1  0
 57111  1  0
M  CHG  2   7   1  49   1
M  END
> <Mol2_MolInfo_Name>
14460

> <Mol2_MolInfo_Type>
SMALL

> <Mol2_MolInfo_Charge>
USER_CHARGES

> <Mol2_Substructures>
     1 ****        1 GROUP             0       ****    0 ROOT    

> <Name>
14460

$$$$
14460
  SciTegic06232017503D

113121  0  0  0  0            999 V2000
   -2.0691    6.1633   -3.7730 C   0  0
   -2.4840    5.1656   -2.6816 C   0  0
   -1.5819    3.9426   -2.5828 C   0  0
   -0.8538    3.6905   -1.4707 C   0  0
    0.0468    2.4724   -1.2634 C   0  0  2  0  0  0
    0.3499    1.8157   -2.6390 C   0  0
   -0.9374    1.6349   -3.4745 N   0  3  2  0  0  0
   -1.5300    3.0263   -3.8122 C   0  0
   -1.9913    0.6998   -2.8287 C   0  0
   -1.3554   -0.5858   -2.3080 C   0  0
   -0.6127   -0.8172   -1.1317 C   0  0
   -0.3065   -2.1658   -1.1145 N   0  0
   -0.7664   -2.8206   -2.2265 C   0  0
   -0.6569   -4.1600   -2.6159 C   0  0
   -1.2447   -4.5144   -3.8297 C   0  0
   -1.9117   -3.5819   -4.6190 C   0  0
   -2.0182   -2.2497   -4.2228 C   0  0
   -1.4386   -1.8442   -3.0070 C   0  0
   -0.1093    0.0937    0.0348 C   0  0  1  0  0  0
   -0.5924    1.5792   -0.1534 C   0  0
   -0.7606   -0.4870    1.3413 C   0  0
   -1.7482    0.0335    1.8693 O   0  0
   -0.1313   -1.5936    1.8170 O   0  0
   -0.5885   -2.2350    2.9987 C   0  0
    1.4569    0.1008    0.2088 C   0  0
    2.2793   -0.4657   -0.7824 C   0  0
    3.6677   -0.4800   -0.6801 C   0  0
    4.2746    0.0990    0.4252 C   0  0
    3.4959    0.6657    1.4307 C   0  0
    2.0932    0.7008    1.3272 C   0  0
    1.3012    1.2989    2.2929 O   0  0
    1.8924    1.8946    3.4428 C   0  0
    5.6412   -0.1730    0.3546 N   0  0
    6.6403    0.6637    1.0170 C   0  0
    5.9967   -0.5557   -1.0245 C   0  0  1  0  0  0
    7.2029   -1.5438   -1.2861 C   0  0  2  0  0  0
    7.3697   -1.6529   -2.6971 O   0  0
    6.9215   -2.9650   -0.6677 C   0  0  2  0  0  0
    7.9080   -3.8964   -1.1607 O   0  0
    8.6537   -4.6879   -0.3523 C   0  0
    8.6239   -4.7174    0.8773 O   0  0
    9.5927   -5.5897   -1.1420 C   0  0
    5.4305   -3.5169   -0.7721 C   0  0  2  0  0  0
    4.7780   -3.5772    0.6511 C   0  0
    5.4676   -4.4109    1.7515 C   0  0
    5.3828   -4.9666   -1.3155 C   0  0
    4.8909   -5.3496   -2.5111 C   0  0
    4.3046   -4.3977   -3.5389 C   0  0
    4.7890   -2.9733   -3.2065 N   0  3  1  0  0  0
    4.1039   -1.8294   -3.9560 C   0  0
    4.4539   -0.6058   -3.1111 C   0  0
    4.6734   -1.0798   -1.6446 C   0  0  2  0  0  0
    4.5372   -2.6308   -1.7256 C   0  0  2  0  0  0
    8.5536   -0.9402   -0.7916 C   0  0
    9.2189   -1.4657    0.1053 O   0  0
    8.8915    0.2143   -1.4240 O   0  0
   10.0867    0.9020   -1.0850 C   0  0
   -2.7315    7.0293   -3.7791 H   0  0
   -2.1106    5.7129   -4.7654 H   0  0
   -1.0532    6.5256   -3.6113 H   0  0
   -2.5145    5.6870   -1.7232 H   0  0
   -3.5039    4.8256   -2.8661 H   0  0
   -0.9399    4.3861   -0.6477 H   0  0
    1.0044    2.8293   -0.8810 H   0  0
    0.9835    2.4645   -3.2467 H   0  0
    0.8563    0.8573   -2.5982 H   0  0
   -2.5018    2.8681   -4.2824 H   0  0
   -0.8416    3.4491   -4.5451 H   0  0
   -2.5369    1.2789   -2.0888 H   0  0
   -2.6892    0.5133   -3.6454 H   0  0
    0.2155   -2.5748   -0.3527 H   0  0
   -0.1438   -4.8932   -2.0106 H   0  0
   -1.1840   -5.5396   -4.1655 H   0  0
   -2.3556   -3.8969   -5.5522 H   0  0
   -2.5415   -1.5440   -4.8505 H   0  0
   -0.4472    2.1281    0.7785 H   0  0
   -1.6773    1.5813   -0.2408 H   0  0
    0.0540   -3.0841    3.2313 H   0  0
   -1.6079   -2.6035    2.8744 H   0  0
   -0.5680   -1.5511    3.8487 H   0  0
    1.8548   -0.9160   -1.6645 H   0  0
    3.9909    1.0723    2.2982 H   0  0
    1.1068    2.3109    4.0734 H   0  0
    2.5643    2.7104    3.1716 H   0  0
    2.4368    1.1600    4.0380 H   0  0
    6.2110    1.1794    1.8757 H   0  0
    7.0416    1.4262    0.3481 H   0  0
    7.4591    0.0603    1.4055 H   0  0
    6.2296    0.3892   -1.5224 H   0  0
    8.0756   -2.2816   -2.8687 H   0  0
    7.1260   -2.8379    0.3953 H   0  0
    9.0259   -6.2190   -1.8283 H   0  0
   10.1605   -6.2361   -0.4720 H   0  0
   10.2970   -4.9899   -1.7186 H   0  0
    4.6642   -2.5700    1.0447 H   0  0
    3.7556   -3.9472    0.5530 H   0  0
    4.8409   -4.4452    2.6429 H   0  0
    6.4167   -3.9766    2.0612 H   0  0
    5.6470   -5.4425    1.4525 H   0  0
    5.7998   -5.7576   -0.7101 H   0  0
    4.9325   -6.4015   -2.7543 H   0  0
    4.6428   -4.6112   -4.5534 H   0  0
    3.2143   -4.4181   -3.5004 H   0  0
    4.4820   -1.8187   -4.9789 H   0  0
    3.0367   -2.0597   -3.9662 H   0  0
    5.3498   -0.1482   -3.5323 H   0  0
    3.6490    0.1251   -3.1994 H   0  0
    3.4834   -2.8985   -1.6024 H   0  0
   10.1863    1.7975   -1.6986 H   0  0
   10.9617    0.2737   -1.2567 H   0  0
   10.0788    1.2066   -0.0375 H   0  0
   -0.6558    1.2066   -4.3451 H   0  0
    5.7822   -2.9113   -3.3838 H   0  0
  1  2  1  0
  1 58  1  0
  1 59  1  0
  1 60  1  0
  2  3  1  0
  2 61  1  0
  2 62  1  0
  3  4  2  0
  3  8  1  0
  4  5  1  0
  4 63  1  0
  5  6  1  0
  5 64  1  0
  5 20  1  0
  6  7  1  0
  6 65  1  0
  6 66  1  0
  7  8  1  0
  7  9  1  0
  7112  1  0
  8 67  1  0
  8 68  1  0
  9 10  1  0
  9 69  1  0
  9 70  1  0
 10 11  2  0
 10 18  1  0
 11 12  1  0
 11 19  1  0
 12 13  1  0
 12 71  1  0
 13 14  2  0
 13 18  1  0
 14 15  1  0
 14 72  1  0
 15 16  2  0
 15 73  1  0
 16 17  1  0
 16 74  1  0
 17 18  2  0
 17 75  1  0
 19 20  1  0
 19 21  1  0
 19 25  1  0
 20 76  1  0
 20 77  1  0
 21 22  2  0
 21 23  1  0
 23 24  1  0
 24 78  1  0
 24 79  1  0
 24 80  1  0
 25 26  2  0
 25 30  1  0
 26 27  1  0
 26 81  1  0
 27 28  2  0
 27 52  1  0
 28 29  1  0
 28 33  1  0
 29 30  2  0
 29 82  1  0
 30 31  1  0
 31 32  1  0
 32 83  1  0
 32 84  1  0
 32 85  1  0
 33 34  1  0
 33 35  1  0
 34 86  1  0
 34 87  1  0
 34 88  1  0
 35 36  1  0
 35 89  1  0
 35 52  1  0
 36 37  1  0
 36 38  1  0
 36 54  1  0
 37 90  1  0
 38 39  1  0
 38 43  1  0
 38 91  1  0
 39 40  1  0
 40 41  2  0
 40 42  1  0
 42 92  1  0
 42 93  1  0
 42 94  1  0
 43 44  1  0
 43 46  1  0
 43 53  1  0
 44 45  1  0
 44 95  1  0
 44 96  1  0
 45 97  1  0
 45 98  1  0
 45 99  1  0
 46 47  2  0
 46100  1  0
 47 48  1  0
 47101  1  0
 48 49  1  0
 48102  1  0
 48103  1  0
 49 50  1  0
 49 53  1  0
 49113  1  0
 50 51  1  0
 50104  1  0
 50105  1  0
 51 52  1  0
 51106  1  0
 51107  1  0
 52 53  1  0
 53108  1  0
 54 55  2  0
 54 56  1  0
 56 57  1  0
 57109  1  0
 57110  1  0
 57111  1  0
M  CHG  2   7   1  49   1
M  END
> <Mol2_MolInfo_Name>
14460

> <Mol2_MolInfo_Type>
SMALL

> <Mol2_MolInfo_Charge>
USER_CHARGES

> <Mol2_Substructures>
     1 ****        1 GROUP             0       ****    0 ROOT    

> <Name>
14460

$$$$
14460
  SciTegic06232017503D

113121  0  0  0  0            999 V2000
   -2.5015    6.0265    1.1709 C   0  0
   -2.4696    5.0725    2.3784 C   0  0
   -1.5502    3.8539    2.2949 C   0  0
   -0.7902    3.5594    1.2116 C   0  0
    0.1247    2.3412    1.0776 C   0  0  1  0  0  0
    0.3971    1.7412    2.4852 C   0  0
   -0.9095    1.5862    3.2932 N   0  3  1  0  0  0
   -1.5115    2.9883    3.5611 C   0  0
   -1.9466    0.6261    2.6570 C   0  0
   -1.3033   -0.6803    2.1989 C   0  0
   -0.5207   -0.9564    1.0584 C   0  0
   -0.2330   -2.3087    1.0888 N   0  0
   -0.7459   -2.9254    2.1996 C   0  0
   -0.6739   -4.2552    2.6279 C   0  0
   -1.3164   -4.5686    3.8253 C   0  0
   -1.9983   -3.6055    4.5631 C   0  0
   -2.0650   -2.2824    4.1298 C   0  0
   -1.4321   -1.9180    2.9275 C   0  0
    0.0382   -0.0904   -0.1157 C   0  0  2  0  0  0
   -0.4729    1.3951   -0.0127 C   0  0
   -0.5255   -0.7495   -1.4257 C   0  0
    0.1393   -1.5517   -2.0901 O   0  0
   -1.7969   -0.3812   -1.7198 O   0  0
   -2.4515   -0.8908   -2.8723 C   0  0
    1.6119   -0.0626   -0.2006 C   0  0
    2.3839   -0.6094    0.8413 C   0  0
    3.7731   -0.5557    0.8358 C   0  0
    4.4368    0.0538   -0.2301 C   0  0
    3.7075    0.5665   -1.2980 C   0  0
    2.3000    0.5481   -1.2841 C   0  0
    1.5509    1.1125   -2.3032 O   0  0
    2.1926    1.7502   -3.4025 C   0  0
    5.8161   -0.0935   -0.0153 N   0  0
    6.7874    0.8243   -0.5990 C   0  0
    5.9227   -0.1973    1.4458 C   0  0  2  0  0  0
    7.2359   -0.4240    2.2890 C   0  0  2  0  0  0
    7.9293   -1.4950    1.6511 O   0  0
    6.9039   -0.7183    3.8261 C   0  0  2  0  0  0
    7.2223   -2.0738    4.1928 O   0  0
    8.4397   -2.4333    4.6671 C   0  0
    9.4060   -1.6896    4.8396 O   0  0
    8.5157   -3.9206    4.9839 C   0  0
    5.4305   -0.3788    4.3103 C   0  0  2  0  0  0
    5.1766    1.1669    4.4200 C   0  0
    6.1565    1.9992    5.2759 C   0  0
    5.1643   -0.9011    5.7508 C   0  0
    4.3266   -1.9111    6.0794 C   0  0
    3.5744   -2.7570    5.0604 C   0  0
    4.3533   -2.5905    3.7490 N   0  3  1  0  0  0
    3.9786   -3.3596    2.4922 C   0  0
    4.9101   -2.6586    1.5131 C   0  0
    4.7705   -1.1430    1.8184 C   0  0  2  0  0  0
    4.4146   -1.1002    3.3382 C   0  0  2  0  0  0
    8.1856    0.8154    2.2768 C   0  0
    7.7437    1.9642    2.1887 O   0  0
    9.5023    0.5081    2.4053 O   0  0
   10.4867    1.5307    2.4405 C   0  0
   -3.1838    6.8571    1.3542 H   0  0
   -2.8423    5.5174    0.2687 H   0  0
   -1.5170    6.4512    0.9716 H   0  0
   -2.1860    5.6436    3.2636 H   0  0
   -3.4826    4.7128    2.5634 H   0  0
   -0.8484    4.2106    0.3524 H   0  0
    1.0894    2.6922    0.7077 H   0  0
    0.9053    0.7833    2.4979 H   0  0
    1.0135    2.4163    3.0819 H   0  0
   -0.8395    3.4469    4.2878 H   0  0
   -2.4897    2.8427    4.0222 H   0  0
   -2.6635    0.4710    3.4640 H   0  0
   -2.4760    1.1765    1.8841 H   0  0
    0.3112   -2.7461    0.3589 H   0  0
   -0.1495   -5.0119    2.0624 H   0  0
   -1.2872   -5.5855    4.1890 H   0  0
   -2.4850   -3.8895    5.4848 H   0  0
   -2.6008   -1.5522    4.7180 H   0  0
   -1.5586    1.3896    0.0529 H   0  0
   -0.3158    1.9018   -0.9659 H   0  0
   -3.4587   -0.4796   -2.9377 H   0  0
   -2.5304   -1.9781   -2.8300 H   0  0
   -1.9133   -0.6168   -3.7809 H   0  0
    1.9170   -1.0841    1.6879 H   0  0
    4.2464    1.0000   -2.1259 H   0  0
    1.4344    2.1355   -4.0843 H   0  0
    2.8153    1.0521   -3.9638 H   0  0
    2.8008    2.5948   -3.0755 H   0  0
    6.6464    0.8764   -1.6789 H   0  0
    7.8083    0.4838   -0.4290 H   0  0
    6.6737    1.8334   -0.2013 H   0  0
    5.6178    0.8030    1.7452 H   0  0
    8.0526   -1.2705    0.7257 H   0  0
    7.5565   -0.1196    4.4641 H   0  0
    8.3799   -4.5072    4.0753 H   0  0
    7.7397   -4.1970    5.6976 H   0  0
    9.4850   -4.1730    5.4145 H   0  0
    5.1288    1.6453    3.4490 H   0  0
    4.1735    1.3256    4.8207 H   0  0
    5.8611    3.0488    5.2726 H   0  0
    7.1758    1.9607    4.8948 H   0  0
    6.1761    1.6826    6.3177 H   0  0
    5.6811   -0.4349    6.5763 H   0  0
    4.2296   -2.1607    7.1262 H   0  0
    3.6068   -3.8194    5.3045 H   0  0
    2.5415   -2.4352    4.9172 H   0  0
    4.1889   -4.4148    2.6691 H   0  0
    2.9094   -3.2145    2.3283 H   0  0
    5.9172   -3.0113    1.7306 H   0  0
    4.7159   -2.9205    0.4716 H   0  0
    3.3974   -0.7263    3.4738 H   0  0
   11.4776    1.0864    2.5330 H   0  0
   10.3310    2.1935    3.2929 H   0  0
   10.4662    2.1280    1.5279 H   0  0
   -0.6490    1.1922    4.1863 H   0  0
    5.3021   -2.8770    3.9484 H   0  0
  1  2  1  0
  1 58  1  0
  1 59  1  0
  1 60  1  0
  2  3  1  0
  2 61  1  0
  2 62  1  0
  3  4  2  0
  3  8  1  0
  4  5  1  0
  4 63  1  0
  5  6  1  0
  5 64  1  0
  5 20  1  0
  6  7  1  0
  6 65  1  0
  6 66  1  0
  7  8  1  0
  7  9  1  0
  7112  1  0
  8 67  1  0
  8 68  1  0
  9 10  1  0
  9 69  1  0
  9 70  1  0
 10 11  2  0
 10 18  1  0
 11 12  1  0
 11 19  1  0
 12 13  1  0
 12 71  1  0
 13 14  2  0
 13 18  1  0
 14 15  1  0
 14 72  1  0
 15 16  2  0
 15 73  1  0
 16 17  1  0
 16 74  1  0
 17 18  2  0
 17 75  1  0
 19 20  1  0
 19 21  1  0
 19 25  1  0
 20 76  1  0
 20 77  1  0
 21 22  2  0
 21 23  1  0
 23 24  1  0
 24 78  1  0
 24 79  1  0
 24 80  1  0
 25 26  2  0
 25 30  1  0
 26 27  1  0
 26 81  1  0
 27 28  2  0
 27 52  1  0
 28 29  1  0
 28 33  1  0
 29 30  2  0
 29 82  1  0
 30 31  1  0
 31 32  1  0
 32 83  1  0
 32 84  1  0
 32 85  1  0
 33 34  1  0
 33 35  1  0
 34 86  1  0
 34 87  1  0
 34 88  1  0
 35 36  1  0
 35 89  1  0
 35 52  1  0
 36 37  1  0
 36 38  1  0
 36 54  1  0
 37 90  1  0
 38 39  1  0
 38 43  1  0
 38 91  1  0
 39 40  1  0
 40 41  2  0
 40 42  1  0
 42 92  1  0
 42 93  1  0
 42 94  1  0
 43 44  1  0
 43 46  1  0
 43 53  1  0
 44 45  1  0
 44 95  1  0
 44 96  1  0
 45 97  1  0
 45 98  1  0
 45 99  1  0
 46 47  2  0
 46100  1  0
 47 48  1  0
 47101  1  0
 48 49  1  0
 48102  1  0
 48103  1  0
 49 50  1  0
 49 53  1  0
 49113  1  0
 50 51  1  0
 50104  1  0
 50105  1  0
 51 52  1  0
 51106  1  0
 51107  1  0
 52 53  1  0
 53108  1  0
 54 55  2  0
 54 56  1  0
 56 57  1  0
 57109  1  0
 57110  1  0
 57111  1  0
M  CHG  2   7   1  49   1
M  END
> <Mol2_MolInfo_Name>
14460

> <Mol2_MolInfo_Type>
SMALL

> <Mol2_MolInfo_Charge>
USER_CHARGES

> <Mol2_Substructures>
     1 ****        1 GROUP             0       ****    0 ROOT    

> <Name>
14460

$$$$
14460
  SciTegic06232017503D

113121  0  0  0  0            999 V2000
    4.2518    4.1027    2.8981 C   0  0
    3.6749    3.3103    1.7170 C   0  0
    2.3197    2.6763    1.9968 C   0  0
    1.2099    3.0124    1.2838 C   0  0
   -0.1858    2.3889    1.4956 C   0  0  2  0  0  0
   -0.2438    1.6904    2.8588 C   0  0
    0.9940    0.7855    2.8278 N   0  3  1  0  0  0
    2.2793    1.5866    3.0831 C   0  0
    0.7832   -0.6021    3.4160 C   0  0
   -0.2357   -1.2752    2.5012 C   0  0
   -0.5612   -1.0150    1.1389 C   0  0
   -1.6263   -1.8541    0.8546 N   0  0
   -1.9485   -2.6904    1.8924 C   0  0
   -2.9136   -3.6980    1.9991 C   0  0
   -2.9865   -4.3764    3.2158 C   0  0
   -2.1424   -4.0658    4.2784 C   0  0
   -1.1866   -3.0575    4.1647 C   0  0
   -1.0751   -2.3510    2.9540 C   0  0
   -0.0234    0.0015    0.0398 C   0  0  2  0  0  0
   -0.6544    1.4519    0.3239 C   0  0
   -0.4523   -0.5276   -1.3847 C   0  0
   -0.1038   -1.6488   -1.7721 O   0  0
   -1.2254    0.3177   -2.1098 O   0  0
   -1.6663   -0.0362   -3.4123 C   0  0
    1.5441    0.0388   -0.1133 C   0  0
    2.3445   -0.9313    0.5222 C   0  0
    3.7352   -0.9228    0.4208 C   0  0
    4.3596    0.0515   -0.3616 C   0  0
    3.5947    0.9648   -1.0754 C   0  0
    2.1942    0.9758   -0.9624 C   0  0
    1.4160    1.8668   -1.6804 O   0  0
    2.0197    2.8264   -2.5418 C   0  0
    5.7366   -0.2094   -0.3682 N   0  0
    6.7198    0.8430   -0.6007 C   0  0
    5.9627   -0.9520    0.8753 C   0  0  2  0  0  0
    7.3238   -1.5870    1.3563 C   0  0  2  0  0  0
    7.8072   -2.3520    0.2540 O   0  0
    7.1239   -2.4664    2.6784 C   0  0  2  0  0  0
    7.4050   -3.8600    2.4456 O   0  0
    8.6528   -4.3776    2.5493 C   0  0
    9.6787   -3.7571    2.8291 O   0  0
    8.6812   -5.8722    2.2594 C   0  0
    5.7322   -2.3238    3.4298 C   0  0  2  0  0  0
    5.7000   -0.9750    4.2335 C   0  0
    4.5036   -0.7487    5.1813 C   0  0
    5.5867   -3.4123    4.5290 C   0  0
    4.7109   -4.4421    4.4999 C   0  0
    3.7883   -4.7372    3.3250 C   0  0
    4.4301   -4.0369    2.1194 N   0  3  1  0  0  0
    3.8516   -4.1767    0.7206 C   0  0
    4.7298   -3.1562    0.0124 C   0  0
    4.7642   -1.9141    0.9458 C   0  0  2  0  0  0
    4.5672   -2.5171    2.3746 C   0  0  2  0  0  0
    8.4145   -0.5116    1.6605 C   0  0
    9.5288   -0.5209    1.1257 O   0  0
    8.0089    0.4101    2.5636 O   0  0
    8.8683    1.4683    2.9605 C   0  0
    5.2159    4.5400    2.6368 H   0  0
    4.4065    3.4661    3.7698 H   0  0
    3.5879    4.9172    3.1901 H   0  0
    3.6095    3.9641    0.8457 H   0  0
    4.3710    2.5171    1.4415 H   0  0
    1.3117    3.7614    0.5113 H   0  0
   -0.8872    3.2237    1.5389 H   0  0
   -0.1246    2.3780    3.6985 H   0  0
   -1.1541    1.1091    3.0113 H   0  0
    3.1068    0.8832    2.9861 H   0  0
    2.2288    1.9790    4.0996 H   0  0
    1.7518   -1.0930    3.4084 H   0  0
    0.4576   -0.4337    4.4437 H   0  0
   -2.0659   -1.8464   -0.0547 H   0  0
   -3.5747   -3.9471    1.1820 H   0  0
   -3.7179   -5.1624    3.3378 H   0  0
   -2.2321   -4.6132    5.2055 H   0  0
   -0.5426   -2.8276    5.0008 H   0  0
   -1.7246    1.2959    0.4751 H   0  0
   -0.6331    2.0823   -0.5631 H   0  0
   -2.2653    0.7720   -3.8313 H   0  0
   -2.2803   -0.9376   -3.3872 H   0  0
   -0.8199   -0.2113   -4.0782 H   0  0
    1.8909   -1.7284    1.0864 H   0  0
    4.1017    1.6622   -1.7235 H   0  0
    1.2408    3.4347   -3.0013 H   0  0
    2.5790    2.3463   -3.3464 H   0  0
    2.6809    3.4982   -1.9925 H   0  0
    6.4451    1.4281   -1.4786 H   0  0
    7.7034    0.4198   -0.8016 H   0  0
    6.7878    1.5254    0.2476 H   0  0
    5.7789   -0.1741    1.6131 H   0  0
    8.6532   -2.7358    0.4981 H   0  0
    7.8679   -2.1711    3.4229 H   0  0
    8.1005   -6.4142    3.0057 H   0  0
    9.7040   -6.2491    2.2793 H   0  0
    8.2597   -6.0757    1.2748 H   0  0
    6.6092   -0.8916    4.8319 H   0  0
    5.7261   -0.1102    3.5823 H   0  0
    4.5457    0.2485    5.6205 H   0  0
    4.4930   -1.4598    6.0074 H   0  0
    3.5543   -0.8322    4.6605 H   0  0
    6.2230   -3.3445    5.4006 H   0  0
    4.7023   -5.1177    5.3429 H   0  0
    3.7600   -5.8002    3.0832 H   0  0
    2.7758   -4.3578    3.4728 H   0  0
    3.9840   -5.2115    0.4032 H   0  0
    2.7886   -3.9389    0.7820 H   0  0
    5.7130   -3.6122   -0.0837 H   0  0
    4.3973   -2.9386   -1.0043 H   0  0
    3.5990   -2.2166    2.7731 H   0  0
    8.3572    2.1090    3.6791 H   0  0
    9.1577    2.0805    2.1052 H   0  0
    9.7726    1.0816    3.4327 H   0  0
    1.0725    0.5520    1.8473 H   0  0
    5.3676   -4.4074    2.0453 H   0  0
  1  2  1  0
  1 58  1  0
  1 59  1  0
  1 60  1  0
  2  3  1  0
  2 61  1  0
  2 62  1  0
  3  4  2  0
  3  8  1  0
  4  5  1  0
  4 63  1  0
  5  6  1  0
  5 64  1  0
  5 20  1  0
  6  7  1  0
  6 65  1  0
  6 66  1  0
  7  8  1  0
  7  9  1  0
  7112  1  0
  8 67  1  0
  8 68  1  0
  9 10  1  0
  9 69  1  0
  9 70  1  0
 10 11  2  0
 10 18  1  0
 11 12  1  0
 11 19  1  0
 12 13  1  0
 12 71  1  0
 13 14  2  0
 13 18  1  0
 14 15  1  0
 14 72  1  0
 15 16  2  0
 15 73  1  0
 16 17  1  0
 16 74  1  0
 17 18  2  0
 17 75  1  0
 19 20  1  0
 19 21  1  0
 19 25  1  0
 20 76  1  0
 20 77  1  0
 21 22  2  0
 21 23  1  0
 23 24  1  0
 24 78  1  0
 24 79  1  0
 24 80  1  0
 25 26  2  0
 25 30  1  0
 26 27  1  0
 26 81  1  0
 27 28  2  0
 27 52  1  0
 28 29  1  0
 28 33  1  0
 29 30  2  0
 29 82  1  0
 30 31  1  0
 31 32  1  0
 32 83  1  0
 32 84  1  0
 32 85  1  0
 33 34  1  0
 33 35  1  0
 34 86  1  0
 34 87  1  0
 34 88  1  0
 35 36  1  0
 35 89  1  0
 35 52  1  0
 36 37  1  0
 36 38  1  0
 36 54  1  0
 37 90  1  0
 38 39  1  0
 38 43  1  0
 38 91  1  0
 39 40  1  0
 40 41  2  0
 40 42  1  0
 42 92  1  0
 42 93  1  0
 42 94  1  0
 43 44  1  0
 43 46  1  0
 43 53  1  0
 44 45  1  0
 44 95  1  0
 44 96  1  0
 45 97  1  0
 45 98  1  0
 45 99  1  0
 46 47  2  0
 46100  1  0
 47 48  1  0
 47101  1  0
 48 49  1  0
 48102  1  0
 48103  1  0
 49 50  1  0
 49 53  1  0
 49113  1  0
 50 51  1  0
 50104  1  0
 50105  1  0
 51 52  1  0
 51106  1  0
 51107  1  0
 52 53  1  0
 53108  1  0
 54 55  2  0
 54 56  1  0
 56 57  1  0
 57109  1  0
 57110  1  0
 57111  1  0
M  CHG  2   7   1  49   1
M  END
> <Mol2_MolInfo_Name>
14460

> <Mol2_MolInfo_Type>
SMALL

> <Mol2_MolInfo_Charge>
USER_CHARGES

> <Mol2_Substructures>
     1 ****        1 GROUP             0       ****    0 ROOT    

> <Name>
14460

$$$$
14460
  SciTegic06232017503D

113121  0  0  0  0            999 V2000
   -3.7263    0.4353   -4.4274 C   0  0
   -3.6637    1.5792   -3.4012 C   0  0
   -3.2480    1.1868   -1.9855 C   0  0
   -2.3762    1.9504   -1.2692 C   0  0
   -1.9722    1.6805    0.1981 C   0  0  1  0  0  0
   -2.9540    0.6857    0.8363 C   0  0
   -2.9835   -0.4618   -0.1836 N   0  3  2  0  0  0
   -3.8537   -0.1035   -1.3968 C   0  0
   -2.9492   -1.8779    0.3829 C   0  0
   -1.6783   -1.9468    1.2258 C   0  0
   -0.4593   -1.2238    1.1091 C   0  0
    0.2749   -1.5437    2.2354 N   0  0
   -0.3254   -2.5044    3.0079 C   0  0
    0.0969   -3.1386    4.1816 C   0  0
   -0.7687   -4.0809    4.7370 C   0  0
   -1.9993   -4.3756    4.1566 C   0  0
   -2.4139   -3.7366    2.9891 C   0  0
   -1.5691   -2.7863    2.3889 C   0  0
    0.1340   -0.1690    0.0952 C   0  0  2  0  0  0
   -0.4622    1.2853    0.3957 C   0  0
   -0.1223   -0.5114   -1.4102 C   0  0
   -0.6802   -1.5512   -1.7706 O   0  0
    0.3655    0.4356   -2.2535 O   0  0
    0.3070    0.2614   -3.6602 C   0  0
    1.7115   -0.2033    0.2046 C   0  0
    2.4348    0.9415    0.5939 C   0  0
    3.8249    0.9347    0.6899 C   0  0
    4.5321   -0.2355    0.4032 C   0  0
    3.8444   -1.4005    0.0821 C   0  0
    2.4432   -1.4000   -0.0320 C   0  0
    1.7311   -2.5454   -0.3486 O   0  0
    2.4099   -3.7718   -0.5963 C   0  0
    5.8929    0.0113    0.6418 N   0  0
    6.9408   -0.7492   -0.0299 C   0  0
    6.0172    1.4618    0.4563 C   0  0  2  0  0  0
    7.3120    2.3405    0.6429 C   0  0  2  0  0  0
    7.8264    2.0167    1.9329 O   0  0
    6.9880    3.9015    0.4836 C   0  0  2  0  0  0
    7.2424    4.6267    1.7022 O   0  0
    8.4523    5.1636    1.9908 C   0  0
    9.4639    5.1035    1.2911 O   0  0
    8.4550    5.8868    3.3307 C   0  0
    5.5470    4.2908   -0.0632 C   0  0  2  0  0  0
    5.4069    4.0541   -1.6099 C   0  0
    6.3848    4.7929   -2.5521 C   0  0
    5.2630    5.8106    0.1071 C   0  0
    4.3640    6.3539    0.9581 C   0  0
    3.5371    5.5465    1.9480 C   0  0
    4.2939    4.2237    2.1307 N   0  3  1  0  0  0
    3.7920    3.1664    3.1017 C   0  0
    4.7383    2.0381    2.7223 C   0  0
    4.7744    2.0218    1.1683 C   0  0  2  0  0  0
    4.4630    3.5006    0.7734 C   0  0  2  0  0  0
    8.4314    1.9832   -0.3849 C   0  0
    9.5744    1.6591   -0.0443 O   0  0
    8.0087    2.0591   -1.6675 O   0  0
    8.8876    1.7599   -2.7417 C   0  0
   -3.9080    0.8257   -5.4292 H   0  0
   -4.5369   -0.2584   -4.2024 H   0  0
   -2.7999   -0.1361   -4.4594 H   0  0
   -2.9942    2.3542   -3.7783 H   0  0
   -4.6491    2.0421   -3.3379 H   0  0
   -1.9738    2.8348   -1.7423 H   0  0
   -2.1135    2.6301    0.7164 H   0  0
   -2.6498    0.3409    1.8247 H   0  0
   -3.9700    1.0788    0.9089 H   0  0
   -4.8809    0.0092   -1.0476 H   0  0
   -3.7757   -0.9552   -2.0727 H   0  0
   -3.8825   -1.9775    0.9388 H   0  0
   -2.9479   -2.5525   -0.4738 H   0  0
    1.1796   -1.1277    2.4029 H   0  0
    1.0473   -2.9149    4.6438 H   0  0
   -0.4788   -4.5936    5.6428 H   0  0
   -2.6427   -5.1091    4.6205 H   0  0
   -3.3741   -3.9746    2.5556 H   0  0
    0.0952    2.0296   -0.1752 H   0  0
   -0.2306    1.5063    1.4393 H   0  0
    0.8016    1.0959   -4.1568 H   0  0
   -0.7243    0.2260   -4.0057 H   0  0
    0.8081   -0.6589   -3.9639 H   0  0
    1.9359    1.8602    0.8506 H   0  0
    4.4102   -2.3046   -0.0801 H   0  0
    1.6773   -4.5432   -0.8332 H   0  0
    2.9669   -4.1056    0.2804 H   0  0
    3.0884   -3.6893   -1.4469 H   0  0
    6.7421   -1.8180    0.0534 H   0  0
    7.9109   -0.5725    0.4337 H   0  0
    6.9993   -0.5036   -1.0910 H   0  0
    5.8332    1.5433   -0.6123 H   0  0
    8.0055    1.0736    1.9620 H   0  0
    7.6871    4.3426   -0.2280 H   0  0
    8.2884    5.1781    4.1419 H   0  0
    7.6674    6.6401    3.3579 H   0  0
    9.4113    6.3827    3.4985 H   0  0
    5.4592    3.0039   -1.8702 H   0  0
    4.3952    4.3337   -1.9103 H   0  0
    6.2152    4.4869   -3.5847 H   0  0
    7.4283    4.5779   -2.3284 H   0  0
    6.2536    5.8738   -2.5250 H   0  0
    5.8272    6.5147   -0.4855 H   0  0
    4.2667    7.4300    0.9657 H   0  0
    3.4972    6.0161    2.9314 H   0  0
    2.5278    5.3431    1.5872 H   0  0
    3.9060    3.5566    4.1136 H   0  0
    2.7362    2.9999    2.8825 H   0  0
    5.7063    2.3012    3.1435 H   0  0
    4.4630    1.0813    3.1696 H   0  0
    3.4789    3.5581    0.3032 H   0  0
    8.3620    1.8706   -3.6901 H   0  0
    9.2537    0.7343   -2.6734 H   0  0
    9.7444    2.4354   -2.7466 H   0  0
   -2.0511   -0.4225   -0.5716 H   0  0
    5.2198    4.4638    2.4579 H   0  0
  1  2  1  0
  1 58  1  0
  1 59  1  0
  1 60  1  0
  2  3  1  0
  2 61  1  0
  2 62  1  0
  3  4  2  0
  3  8  1  0
  4  5  1  0
  4 63  1  0
  5  6  1  0
  5 64  1  0
  5 20  1  0
  6  7  1  0
  6 65  1  0
  6 66  1  0
  7  8  1  0
  7  9  1  0
  7112  1  0
  8 67  1  0
  8 68  1  0
  9 10  1  0
  9 69  1  0
  9 70  1  0
 10 11  2  0
 10 18  1  0
 11 12  1  0
 11 19  1  0
 12 13  1  0
 12 71  1  0
 13 14  2  0
 13 18  1  0
 14 15  1  0
 14 72  1  0
 15 16  2  0
 15 73  1  0
 16 17  1  0
 16 74  1  0
 17 18  2  0
 17 75  1  0
 19 20  1  0
 19 21  1  0
 19 25  1  0
 20 76  1  0
 20 77  1  0
 21 22  2  0
 21 23  1  0
 23 24  1  0
 24 78  1  0
 24 79  1  0
 24 80  1  0
 25 26  2  0
 25 30  1  0
 26 27  1  0
 26 81  1  0
 27 28  2  0
 27 52  1  0
 28 29  1  0
 28 33  1  0
 29 30  2  0
 29 82  1  0
 30 31  1  0
 31 32  1  0
 32 83  1  0
 32 84  1  0
 32 85  1  0
 33 34  1  0
 33 35  1  0
 34 86  1  0
 34 87  1  0
 34 88  1  0
 35 36  1  0
 35 89  1  0
 35 52  1  0
 36 37  1  0
 36 38  1  0
 36 54  1  0
 37 90  1  0
 38 39  1  0
 38 43  1  0
 38 91  1  0
 39 40  1  0
 40 41  2  0
 40 42  1  0
 42 92  1  0
 42 93  1  0
 42 94  1  0
 43 44  1  0
 43 46  1  0
 43 53  1  0
 44 45  1  0
 44 95  1  0
 44 96  1  0
 45 97  1  0
 45 98  1  0
 45 99  1  0
 46 47  2  0
 46100  1  0
 47 48  1  0
 47101  1  0
 48 49  1  0
 48102  1  0
 48103  1  0
 49 50  1  0
 49 53  1  0
 49113  1  0
 50 51  1  0
 50104  1  0
 50105  1  0
 51 52  1  0
 51106  1  0
 51107  1  0
 52 53  1  0
 53108  1  0
 54 55  2  0
 54 56  1  0
 56 57  1  0
 57109  1  0
 57110  1  0
 57111  1  0
M  CHG  2   7   1  49   1
M  END
> <Mol2_MolInfo_Name>
14460

> <Mol2_MolInfo_Type>
SMALL

> <Mol2_MolInfo_Charge>
USER_CHARGES

> <Mol2_Substructures>
     1 ****        1 GROUP             0       ****    0 ROOT    

> <Name>
14460

$$$$
14460
  SciTegic06232017503D

113121  0  0  0  0            999 V2000
   -2.7332    4.9814    3.3830 C   0  0
   -3.3394    4.8104    1.9825 C   0  0
   -3.1467    3.4197    1.3943 C   0  0
   -2.3090    3.2017    0.3551 C   0  0
   -2.0351    1.8397   -0.2861 C   0  0  2  0  0  0
   -3.1152    0.8113    0.1543 C   0  0
   -3.3868    0.9018    1.6731 N   0  3  2  0  0  0
   -3.9926    2.2908    1.9950 C   0  0
   -2.1437    0.6132    2.5505 C   0  0
   -1.4522   -0.6741    2.1279 C   0  0
   -0.5905   -0.9182    1.0399 C   0  0
   -0.1577   -2.2241    1.1664 N   0  0
   -0.7251   -2.8634    2.2377 C   0  0
   -0.5835   -4.1731    2.7091 C   0  0
   -1.3107   -4.5162    3.8486 C   0  0
   -2.1379   -3.6000    4.4917 C   0  0
   -2.2707   -2.2959    4.0178 C   0  0
   -1.5593   -1.9053    2.8689 C   0  0
   -0.0411   -0.0411   -0.1327 C   0  0  2  0  0  0
   -0.5353    1.4540   -0.0440 C   0  0
   -0.4834   -0.6834   -1.5041 C   0  0
   -1.0466   -0.0340   -2.3892 O   0  0
   -0.1125   -1.9817   -1.6438 O   0  0
   -0.3948   -2.6974   -2.8376 C   0  0
    1.5344    0.0318   -0.0568 C   0  0
    2.3291    0.0032   -1.2239 C   0  0
    3.7195    0.0328   -1.1701 C   0  0
    4.3598    0.1234    0.0672 C   0  0
    3.6059    0.2706    1.2261 C   0  0
    2.2001    0.2317    1.1824 C   0  0
    1.4318    0.4150    2.3199 O   0  0
    2.0471    0.5987    3.5902 C   0  0
    5.7428    0.1776   -0.1656 N   0  0
    6.7085   -0.2660    0.8336 C   0  0
    5.9006   -0.4925   -1.4624 C   0  0  2  0  0  0
    7.2348   -0.6912   -2.2757 C   0  0  2  0  0  0
    7.8405    0.5972   -2.3600 O   0  0
    6.9535   -1.3352   -3.7157 C   0  0  2  0  0  0
    7.3306   -0.4423   -4.7812 O   0  0
    8.5799   -0.4201   -5.3046 C   0  0
    9.5304   -1.1220   -4.9578 O   0  0
    8.7160    0.6086   -6.4186 C   0  0
    5.4875   -1.8843   -3.9919 C   0  0  2  0  0  0
    5.2125   -3.2540   -3.2739 C   0  0
    6.1325   -4.4501   -3.6077 C   0  0
    5.2727   -2.2037   -5.4991 C   0  0
    4.4633   -1.5231   -6.3414 C   0  0
    3.6878   -0.2740   -5.9491 C   0  0
    4.4091    0.2851   -4.7150 N   0  3  1  0  0  0
    3.9455    1.5772   -4.0605 C   0  0
    4.8210    1.5321   -2.8181 C   0  0
    4.7383    0.0702   -2.2967 C   0  0  2  0  0  0
    4.4473   -0.7676   -3.5820 C   0  0  2  0  0  0
    8.2528   -1.6151   -1.5359 C   0  0
    9.4056   -1.2605   -1.2662 O   0  0
    7.7316   -2.8239   -1.2232 O   0  0
    8.5086   -3.7979   -0.5424 C   0  0
   -2.8705    6.0014    3.7429 H   0  0
   -1.6622    4.7756    3.3769 H   0  0
   -3.1983    4.3136    4.1084 H   0  0
   -4.4076    5.0294    2.0130 H   0  0
   -2.9034    5.5584    1.3181 H   0  0
   -1.7595    4.0488   -0.0302 H   0  0
   -2.1725    1.9773   -1.3589 H   0  0
   -4.0769    1.0360   -0.3108 H   0  0
   -2.8969   -0.2259   -0.0932 H   0  0
   -4.1052    2.3513    3.0782 H   0  0
   -4.9810    2.2882    1.5332 H   0  0
   -1.5055    1.4929    2.5255 H   0  0
   -2.5530    0.5546    3.5595 H   0  0
    0.4928   -2.6266    0.5072 H   0  0
    0.0575   -4.8921    2.2202 H   0  0
   -1.2294   -5.5184    4.2437 H   0  0
   -2.6840   -3.9050    5.3726 H   0  0
   -2.9160   -1.6006    4.5337 H   0  0
    0.0405    2.0437   -0.7614 H   0  0
   -0.1992    1.8602    0.9091 H   0  0
   -0.0199   -3.7174   -2.7546 H   0  0
    0.0859   -2.2283   -3.6973 H   0  0
   -1.4690   -2.7437   -3.0217 H   0  0
    1.8752   -0.0399   -2.2012 H   0  0
    4.1247    0.4177    2.1603 H   0  0
    1.2714    0.7054    4.3484 H   0  0
    2.6571    1.5030    3.6133 H   0  0
    2.6611   -0.2600    3.8660 H   0  0
    6.4795    0.1789    1.8022 H   0  0
    7.7173    0.0515    0.5712 H   0  0
    6.6933   -1.3501    0.9538 H   0  0
    5.6350   -1.5137   -1.1979 H   0  0
    7.9826    0.9266   -1.4692 H   0  0
    7.6080   -2.1961   -3.8584 H   0  0
    8.5247    1.6095   -6.0320 H   0  0
    8.0026    0.4005   -7.2159 H   0  0
    9.7210    0.5897   -6.8410 H   0  0
    5.2078   -3.1556   -2.1951 H   0  0
    4.1894   -3.5615   -3.4998 H   0  0
    5.8659   -5.3112   -2.9943 H   0  0
    7.1831   -4.2395   -3.4151 H   0  0
    6.0410   -4.7694   -4.6451 H   0  0
    5.8144   -3.0278   -5.9380 H   0  0
    4.4067   -1.8617   -7.3660 H   0  0
    3.7413    0.5018   -6.7136 H   0  0
    2.6470   -0.4845   -5.6992 H   0  0
    4.1486    2.3966   -4.7507 H   0  0
    2.8709    1.4888   -3.8920 H   0  0
    5.8275    1.7837   -3.1457 H   0  0
    4.5466    2.2839   -2.0759 H   0  0
    3.4316   -1.1674   -3.5410 H   0  0
    7.9170   -4.7007   -0.3900 H   0  0
    8.8282   -3.4317    0.4343 H   0  0
    9.3941   -4.0662   -1.1203 H   0  0
   -4.0818    0.2015    1.8905 H   0  0
    5.3654    0.4587   -4.9931 H   0  0
  1  2  1  0
  1 58  1  0
  1 59  1  0
  1 60  1  0
  2  3  1  0
  2 61  1  0
  2 62  1  0
  3  4  2  0
  3  8  1  0
  4  5  1  0
  4 63  1  0
  5  6  1  0
  5 64  1  0
  5 20  1  0
  6  7  1  0
  6 65  1  0
  6 66  1  0
  7  8  1  0
  7  9  1  0
  7112  1  0
  8 67  1  0
  8 68  1  0
  9 10  1  0
  9 69  1  0
  9 70  1  0
 10 11  2  0
 10 18  1  0
 11 12  1  0
 11 19  1  0
 12 13  1  0
 12 71  1  0
 13 14  2  0
 13 18  1  0
 14 15  1  0
 14 72  1  0
 15 16  2  0
 15 73  1  0
 16 17  1  0
 16 74  1  0
 17 18  2  0
 17 75  1  0
 19 20  1  0
 19 21  1  0
 19 25  1  0
 20 76  1  0
 20 77  1  0
 21 22  2  0
 21 23  1  0
 23 24  1  0
 24 78  1  0
 24 79  1  0
 24 80  1  0
 25 26  2  0
 25 30  1  0
 26 27  1  0
 26 81  1  0
 27 28  2  0
 27 52  1  0
 28 29  1  0
 28 33  1  0
 29 30  2  0
 29 82  1  0
 30 31  1  0
 31 32  1  0
 32 83  1  0
 32 84  1  0
 32 85  1  0
 33 34  1  0
 33 35  1  0
 34 86  1  0
 34 87  1  0
 34 88  1  0
 35 36  1  0
 35 89  1  0
 35 52  1  0
 36 37  1  0
 36 38  1  0
 36 54  1  0
 37 90  1  0
 38 39  1  0
 38 43  1  0
 38 91  1  0
 39 40  1  0
 40 41  2  0
 40 42  1  0
 42 92  1  0
 42 93  1  0
 42 94  1  0
 43 44  1  0
 43 46  1  0
 43 53  1  0
 44 45  1  0
 44 95  1  0
 44 96  1  0
 45 97  1  0
 45 98  1  0
 45 99  1  0
 46 47  2  0
 46100  1  0
 47 48  1  0
 47101  1  0
 48 49  1  0
 48102  1  0
 48103  1  0
 49 50  1  0
 49 53  1  0
 49113  1  0
 50 51  1  0
 50104  1  0
 50105  1  0
 51 52  1  0
 51106  1  0
 51107  1  0
 52 53  1  0
 53108  1  0
 54 55  2  0
 54 56  1  0
 56 57  1  0
 57109  1  0
 57110  1  0
 57111  1  0
M  CHG  2   7   1  49   1
M  END
> <Mol2_MolInfo_Name>
14460

> <Mol2_MolInfo_Type>
SMALL

> <Mol2_MolInfo_Charge>
USER_CHARGES

> <Mol2_Substructures>
     1 ****        1 GROUP             0       ****    0 ROOT    

> <Name>
14460

$$$$
14460
  SciTegic06232017503D

113121  0  0  0  0            999 V2000
   -4.2717    1.9749   -4.5088 C   0  0
   -3.1301    1.1693   -3.8729 C   0  0
   -3.1303    1.1910   -2.3506 C   0  0
   -2.1257    1.7552   -1.6494 C   0  0
   -2.0110    1.7710   -0.1255 C   0  0  1  0  0  0
   -3.2293    1.1317    0.5999 C   0  0
   -3.9357    0.0367   -0.2324 N   0  3  1  0  0  0
   -4.3184    0.5406   -1.6457 C   0  0
   -3.2213   -1.3358   -0.1857 C   0  0
   -2.0143   -1.4262   -1.1058 C   0  0
   -0.7114   -0.9378   -0.9044 C   0  0
    0.0231   -1.3297   -2.0045 N   0  0
   -0.7299   -2.0015   -2.9320 C   0  0
   -0.3943   -2.5368   -4.1803 C   0  0
   -1.4117   -3.1793   -4.8857 C   0  0
   -2.7013   -3.2882   -4.3728 C   0  0
   -3.0267   -2.7526   -3.1277 C   0  0
   -2.0341   -2.0895   -2.3843 C   0  0
   -0.0650   -0.1494    0.2806 C   0  0  1  0  0  0
   -0.5949    1.3502    0.3661 C   0  0
   -0.4571   -0.9139    1.5996 C   0  0
   -0.8239   -0.3335    2.6255 O   0  0
   -0.3044   -2.2624    1.5018 O   0  0
   -0.5886   -3.1092    2.6053 C   0  0
    1.5182   -0.0665    0.1599 C   0  0
    2.3815   -0.5894    1.1510 C   0  0
    3.7670   -0.5150    1.0446 C   0  0
    4.3425    0.1098   -0.0615 C   0  0
    3.5304    0.6158   -1.0690 C   0  0
    2.1286    0.5629   -0.9619 C   0  0
    1.3076    1.1095   -1.9364 O   0  0
    1.8630    1.7468   -3.0820 C   0  0
    5.7355   -0.0250    0.0437 N   0  0
    6.6491    0.9085   -0.6042 C   0  0
    5.9616   -0.1540    1.4889 C   0  0  2  0  0  0
    7.3422   -0.4039    2.2147 C   0  0  2  0  0  0
    7.9482   -1.4967    1.5270 O   0  0
    7.1362   -0.6798    3.7786 C   0  0  2  0  0  0
    7.5153   -2.0197    4.1441 O   0  0
    8.7777   -2.3440    4.5124 C   0  0
    9.7389   -1.5777    4.5824 O   0  0
    8.9144   -3.8224    4.8499 C   0  0
    5.7001   -0.3520    4.3655 C   0  0  2  0  0  0
    5.5378    1.2011    4.5025 C   0  0
    4.1226    1.7022    4.8514 C   0  0
    5.5528   -0.8634    5.8247 C   0  0
    4.7712   -1.8941    6.2190 C   0  0
    3.9696   -2.7670    5.2616 C   0  0
    4.6229   -2.5777    3.8850 N   0  3  1  0  0  0
    4.1333   -3.3412    2.6644 C   0  0
    4.9552   -2.6243    1.6026 C   0  0
    4.8433   -1.1103    1.9359 C   0  0  2  0  0  0
    4.6169   -1.0854    3.4781 C   0  0  2  0  0  0
    8.3248    0.8053    2.1079 C   0  0
    7.9139    1.9674    2.0563 O   0  0
    9.6384    0.4564    2.1109 O   0  0
   10.6547    1.4453    2.0434 C   0  0
   -4.2153    1.9338   -5.5970 H   0  0
   -4.2261    3.0242   -4.2151 H   0  0
   -5.2476    1.5867   -4.2157 H   0  0
   -3.1898    0.1307   -4.2007 H   0  0
   -2.1778    1.5442   -4.2523 H   0  0
   -1.3171    2.2011   -2.2111 H   0  0
   -2.0700    2.8319    0.1245 H   0  0
   -2.9892    0.7101    1.5753 H   0  0
   -4.0181    1.8695    0.7565 H   0  0
   -5.0922    1.2907   -1.4768 H   0  0
   -4.7441   -0.3060   -2.1866 H   0  0
   -3.0084   -1.5127    0.8673 H   0  0
   -4.0117   -2.0355   -0.4588 H   0  0
    1.0030   -1.1001   -2.0864 H   0  0
    0.6035   -2.4611   -4.5872 H   0  0
   -1.1939   -3.6058   -5.8541 H   0  0
   -3.4610   -3.7964   -4.9489 H   0  0
   -4.0336   -2.8457   -2.7488 H   0  0
    0.0861    2.0245   -0.1487 H   0  0
   -0.4883    1.7236    1.3859 H   0  0
   -0.4124   -4.1485    2.3278 H   0  0
   -1.6298   -3.0118    2.9157 H   0  0
    0.0516   -2.8714    3.4559 H   0  0
    2.0006   -1.0881    2.0267 H   0  0
    4.0024    1.0626   -1.9300 H   0  0
    1.0535    2.1114   -3.7145 H   0  0
    2.4580    1.0528   -3.6773 H   0  0
    2.4767    2.6051   -2.8048 H   0  0
    6.4096    0.9887   -1.6647 H   0  0
    7.6811    0.5647   -0.5385 H   0  0
    6.5732    1.9070   -0.1723 H   0  0
    5.6754    0.8375    1.8386 H   0  0
    7.9944   -1.2806    0.5924 H   0  0
    7.8135   -0.0443    4.3556 H   0  0
    8.6438   -4.4333    3.9886 H   0  0
    8.2600   -4.0823    5.6819 H   0  0
    9.9405   -4.0601    5.1312 H   0  0
    6.2289    1.5740    5.2614 H   0  0
    5.8484    1.7323    3.6105 H   0  0
    4.1269    2.7804    5.0139 H   0  0
    3.7380    1.2387    5.7601 H   0  0
    3.4165    1.5036    4.0449 H   0  0
    6.1097   -0.3595    6.6025 H   0  0
    4.7505   -2.1331    7.2724 H   0  0
    4.0559   -3.8275    5.5000 H   0  0
    2.9188   -2.4783    5.2083 H   0  0
    4.3694   -4.3957    2.8100 H   0  0
    3.0520   -3.2052    2.6082 H   0  0
    5.9768   -2.9827    1.7130 H   0  0
    4.6524   -2.8777    0.5851 H   0  0
    3.6029   -0.7504    3.7015 H   0  0
   11.6349    0.9687    2.0626 H   0  0
   10.5929    2.1281    2.8919 H   0  0
   10.5767    2.0258    1.1232 H   0  0
   -4.8129   -0.1196    0.2438 H   0  0
    5.5909   -2.8496    3.9899 H   0  0
  1  2  1  0
  1 58  1  0
  1 59  1  0
  1 60  1  0
  2  3  1  0
  2 61  1  0
  2 62  1  0
  3  4  2  0
  3  8  1  0
  4  5  1  0
  4 63  1  0
  5  6  1  0
  5 64  1  0
  5 20  1  0
  6  7  1  0
  6 65  1  0
  6 66  1  0
  7  8  1  0
  7  9  1  0
  7112  1  0
  8 67  1  0
  8 68  1  0
  9 10  1  0
  9 69  1  0
  9 70  1  0
 10 11  2  0
 10 18  1  0
 11 12  1  0
 11 19  1  0
 12 13  1  0
 12 71  1  0
 13 14  2  0
 13 18  1  0
 14 15  1  0
 14 72  1  0
 15 16  2  0
 15 73  1  0
 16 17  1  0
 16 74  1  0
 17 18  2  0
 17 75  1  0
 19 20  1  0
 19 21  1  0
 19 25  1  0
 20 76  1  0
 20 77  1  0
 21 22  2  0
 21 23  1  0
 23 24  1  0
 24 78  1  0
 24 79  1  0
 24 80  1  0
 25 26  2  0
 25 30  1  0
 26 27  1  0
 26 81  1  0
 27 28  2  0
 27 52  1  0
 28 29  1  0
 28 33  1  0
 29 30  2  0
 29 82  1  0
 30 31  1  0
 31 32  1  0
 32 83  1  0
 32 84  1  0
 32 85  1  0
 33 34  1  0
 33 35  1  0
 34 86  1  0
 34 87  1  0
 34 88  1  0
 35 36  1  0
 35 89  1  0
 35 52  1  0
 36 37  1  0
 36 38  1  0
 36 54  1  0
 37 90  1  0
 38 39  1  0
 38 43  1  0
 38 91  1  0
 39 40  1  0
 40 41  2  0
 40 42  1  0
 42 92  1  0
 42 93  1  0
 42 94  1  0
 43 44  1  0
 43 46  1  0
 43 53  1  0
 44 45  1  0
 44 95  1  0
 44 96  1  0
 45 97  1  0
 45 98  1  0
 45 99  1  0
 46 47  2  0
 46100  1  0
 47 48  1  0
 47101  1  0
 48 49  1  0
 48102  1  0
 48103  1  0
 49 50  1  0
 49 53  1  0
 49113  1  0
 50 51  1  0
 50104  1  0
 50105  1  0
 51 52  1  0
 51106  1  0
 51107  1  0
 52 53  1  0
 53108  1  0
 54 55  2  0
 54 56  1  0
 56 57  1  0
 57109  1  0
 57110  1  0
 57111  1  0
M  CHG  2   7   1  49   1
M  END
> <Mol2_MolInfo_Name>
14460

> <Mol2_MolInfo_Type>
SMALL

> <Mol2_MolInfo_Charge>
USER_CHARGES

> <Mol2_Substructures>
     1 ****        1 GROUP             0       ****    0 ROOT    

> <Name>
14460

$$$$
14460
  SciTegic06232017503D

113121  0  0  0  0            999 V2000
   -3.1426   -0.1094    4.7631 C   0  0
   -3.6297    1.0908    3.9375 C   0  0
   -3.2529    1.0306    2.4637 C   0  0
   -2.3620    1.9038    1.9205 C   0  0
   -1.9593    1.9225    0.4318 C   0  0  2  0  0  0
   -2.9788    1.1406   -0.4051 C   0  0
   -3.0731   -0.1941    0.3429 N   0  3  1  0  0  0
   -3.9288   -0.0604    1.6122 C   0  0
   -3.1603   -1.4265   -0.5447 C   0  0
   -1.8537   -1.4739   -1.3378 C   0  0
   -0.5730   -0.9040   -1.0667 C   0  0
    0.2261   -1.2906   -2.1244 N   0  0
   -0.4330   -2.0401   -3.0625 C   0  0
    0.0063   -2.6046   -4.2649 C   0  0
   -0.9313   -3.3275   -5.0024 C   0  0
   -2.2432   -3.4837   -4.5638 C   0  0
   -2.6712   -2.9181   -3.3636 C   0  0
   -1.7597   -2.1781   -2.5892 C   0  0
    0.0494   -0.0443    0.1158 C   0  0  1  0  0  0
   -0.4803    1.4732    0.1410 C   0  0
   -0.2895   -0.6976    1.5066 C   0  0
   -0.1754   -0.0608    2.5584 O   0  0
   -0.6408   -2.0067    1.4467 O   0  0
   -0.9538   -2.7304    2.6274 C   0  0
    1.6401    0.0322   -0.0241 C   0  0
    2.5123   -0.5739    0.9142 C   0  0
    3.8977   -0.4975    0.8097 C   0  0
    4.4712    0.1866   -0.2601 C   0  0
    3.6568    0.7448   -1.2361 C   0  0
    2.2543    0.6927   -1.1285 C   0  0
    1.4446    1.2437   -2.1074 O   0  0
    2.0066    1.9100   -3.2339 C   0  0
    5.8635    0.0360   -0.1711 N   0  0
    6.7819    0.9913   -0.7792 C   0  0
    6.0958   -0.1683    1.2639 C   0  0  2  0  0  0
    7.4776   -0.4549    1.9742 C   0  0  2  0  0  0
    8.0753   -1.5215    1.2392 O   0  0
    7.2741   -0.7920    3.5256 C   0  0  2  0  0  0
    7.6653   -2.1408    3.8425 O   0  0
    8.9327   -2.4687    4.1881 C   0  0
    9.8944   -1.7024    4.2499 O   0  0
    9.0760   -3.9509    4.5044 C   0  0
    5.8367   -0.4977    4.1271 C   0  0  2  0  0  0
    5.6701    1.0469    4.3384 C   0  0
    4.2537    1.5275    4.7097 C   0  0
    5.6926   -1.0777    5.5606 C   0  0
    4.9185   -2.1311    5.9061 C   0  0
    4.1210   -2.9622    4.9092 C   0  0
    4.7676   -2.7029    3.5407 N   0  3  1  0  0  0
    4.2700   -3.4062    2.2873 C   0  0
    5.0821   -2.6378    1.2549 C   0  0
    4.9755   -1.1424    1.6649 C   0  0  2  0  0  0
    4.7546   -1.1927    3.2073 C   0  0  2  0  0  0
    8.4598    0.7579    1.9061 C   0  0
    8.0502    1.9207    1.9484 O   0  0
    9.7722    0.4106    1.8315 O   0  0
   10.7850    1.4041    1.7767 C   0  0
   -3.4039    0.0132    5.8146 H   0  0
   -2.0590   -0.2174    4.7042 H   0  0
   -3.5921   -1.0429    4.4239 H   0  0
   -4.7150    1.1719    4.0119 H   0  0
   -3.2332    2.0049    4.3833 H   0  0
   -1.9107    2.6389    2.5716 H   0  0
   -2.0395    2.9667    0.1245 H   0  0
   -3.9736    1.5904   -0.3989 H   0  0
   -2.6700    0.9924   -1.4406 H   0  0
   -3.9139   -1.0391    2.0918 H   0  0
   -4.9437    0.1916    1.3016 H   0  0
   -3.2874   -2.2752    0.1282 H   0  0
   -4.0639   -1.2852   -1.1397 H   0  0
    1.1963   -1.0135   -2.1670 H   0  0
    1.0223   -2.4911   -4.6139 H   0  0
   -0.6321   -3.7787   -5.9373 H   0  0
   -2.9392   -4.0523   -5.1635 H   0  0
   -3.6927   -3.0507   -3.0394 H   0  0
   -0.3006    1.9127   -0.8344 H   0  0
    0.1625    2.0524    0.8075 H   0  0
   -1.2061   -3.7601    2.3743 H   0  0
   -1.8080   -2.2887    3.1417 H   0  0
   -0.1055   -2.7470    3.3130 H   0  0
    2.1400   -1.1421    1.7504 H   0  0
    4.1306    1.2213   -2.0798 H   0  0
    1.2012    2.2799   -3.8683 H   0  0
    2.6145    1.2338   -3.8367 H   0  0
    2.6087    2.7685   -2.9330 H   0  0
    6.5322    1.1303   -1.8313 H   0  0
    7.8090    0.6288   -0.7432 H   0  0
    6.7247    1.9661   -0.2940 H   0  0
    5.8136    0.8049    1.6643 H   0  0
    8.9159   -1.7394    1.6493 H   0  0
    7.9472   -0.1725    4.1249 H   0  0
    8.4392   -4.2202    5.3472 H   0  0
   10.1074   -4.1919    4.7624 H   0  0
    8.7872   -4.5521    3.6423 H   0  0
    6.3592    1.3843    5.1154 H   0  0
    5.9804    1.6220    3.4737 H   0  0
    4.2582    2.5940    4.9363 H   0  0
    3.8636    1.0102    5.5866 H   0  0
    3.5522    1.3783    3.8885 H   0  0
    6.2463   -0.6075    6.3613 H   0  0
    4.9011   -2.4202    6.9470 H   0  0
    4.2160   -4.0325    5.0956 H   0  0
    3.0681   -2.6785    4.8737 H   0  0
    4.5078   -4.4664    2.3795 H   0  0
    3.1883   -3.2684    2.2457 H   0  0
    6.1036   -3.0034    1.3372 H   0  0
    4.7688   -2.8390    0.2289 H   0  0
    3.7399   -0.8727    3.4492 H   0  0
   11.7644    0.9297    1.7147 H   0  0
   10.7664    2.0316    2.6691 H   0  0
   10.6599    2.0420    0.9007 H   0  0
   -2.1405   -0.3073    0.7142 H   0  0
    5.7366   -2.9774    3.6259 H   0  0
  1  2  1  0
  1 58  1  0
  1 59  1  0
  1 60  1  0
  2  3  1  0
  2 61  1  0
  2 62  1  0
  3  4  2  0
  3  8  1  0
  4  5  1  0
  4 63  1  0
  5  6  1  0
  5 64  1  0
  5 20  1  0
  6  7  1  0
  6 65  1  0
  6 66  1  0
  7  8  1  0
  7  9  1  0
  7112  1  0
  8 67  1  0
  8 68  1  0
  9 10  1  0
  9 69  1  0
  9 70  1  0
 10 11  2  0
 10 18  1  0
 11 12  1  0
 11 19  1  0
 12 13  1  0
 12 71  1  0
 13 14  2  0
 13 18  1  0
 14 15  1  0
 14 72  1  0
 15 16  2  0
 15 73  1  0
 16 17  1  0
 16 74  1  0
 17 18  2  0
 17 75  1  0
 19 20  1  0
 19 21  1  0
 19 25  1  0
 20 76  1  0
 20 77  1  0
 21 22  2  0
 21 23  1  0
 23 24  1  0
 24 78  1  0
 24 79  1  0
 24 80  1  0
 25 26  2  0
 25 30  1  0
 26 27  1  0
 26 81  1  0
 27 28  2  0
 27 52  1  0
 28 29  1  0
 28 33  1  0
 29 30  2  0
 29 82  1  0
 30 31  1  0
 31 32  1  0
 32 83  1  0
 32 84  1  0
 32 85  1  0
 33 34  1  0
 33 35  1  0
 34 86  1  0
 34 87  1  0
 34 88  1  0
 35 36  1  0
 35 89  1  0
 35 52  1  0
 36 37  1  0
 36 38  1  0
 36 54  1  0
 37 90  1  0
 38 39  1  0
 38 43  1  0
 38 91  1  0
 39 40  1  0
 40 41  2  0
 40 42  1  0
 42 92  1  0
 42 93  1  0
 42 94  1  0
 43 44  1  0
 43 46  1  0
 43 53  1  0
 44 45  1  0
 44 95  1  0
 44 96  1  0
 45 97  1  0
 45 98  1  0
 45 99  1  0
 46 47  2  0
 46100  1  0
 47 48  1  0
 47101  1  0
 48 49  1  0
 48102  1  0
 48103  1  0
 49 50  1  0
 49 53  1  0
 49113  1  0
 50 51  1  0
 50104  1  0
 50105  1  0
 51 52  1  0
 51106  1  0
 51107  1  0
 52 53  1  0
 53108  1  0
 54 55  2  0
 54 56  1  0
 56 57  1  0
 57109  1  0
 57110  1  0
 57111  1  0
M  CHG  2   7   1  49   1
M  END
> <Mol2_MolInfo_Name>
14460

> <Mol2_MolInfo_Type>
SMALL

> <Mol2_MolInfo_Charge>
USER_CHARGES

> <Mol2_Substructures>
     1 ****        1 GROUP             0       ****    0 ROOT    

> <Name>
14460

$$$$
14460
  SciTegic06232017503D

113121  0  0  0  0            999 V2000
    3.5520    4.8962   -2.6465 C   0  0
    3.2062    3.9219   -1.5117 C   0  0
    1.9550    3.0949   -1.7688 C   0  0
    0.8499    3.2092   -0.9833 C   0  0
   -0.4464    2.3969   -1.1770 C   0  0  1  0  0  0
   -0.4795    1.8141   -2.5934 C   0  0
    0.8712    1.0904   -2.6868 N   0  3  2  0  0  0
    2.0184    2.0833   -2.9277 C   0  0
    0.8256   -0.2599   -3.3886 C   0  0
   -0.1099   -1.1188   -2.5383 C   0  0
   -0.4258   -1.0245   -1.1536 C   0  0
   -1.4245   -1.9574   -0.9365 N   0  0
   -1.7034   -2.7099   -2.0492 C   0  0
   -2.5945   -3.7711   -2.2442 C   0  0
   -2.6420   -4.3298   -3.5215 C   0  0
   -1.8451   -3.8537   -4.5588 C   0  0
   -0.9627   -2.7935   -4.3579 C   0  0
   -0.8770   -2.2046   -3.0842 C   0  0
    0.0814   -0.0906    0.0255 C   0  0  1  0  0  0
   -0.7002    1.3141   -0.0637 C   0  0
   -0.1921   -0.7931    1.4113 C   0  0
    0.0983   -1.9820    1.5879 O   0  0
   -0.7471   -0.0028    2.3626 O   0  0
   -1.0255   -0.5088    3.6600 C   0  0
    1.6494    0.0265    0.0855 C   0  0
    2.4423   -0.9457   -0.5587 C   0  0
    3.8332   -0.9167   -0.5105 C   0  0
    4.4730    0.1087    0.1884 C   0  0
    3.7218    1.0803    0.8398 C   0  0
    2.3170    1.0164    0.8536 C   0  0
    1.5579    1.8865    1.6147 O   0  0
    2.1857    2.8638    2.4383 C   0  0
    5.8549   -0.0316   -0.0093 N   0  0
    6.8208    0.5294    0.9284 C   0  0
    6.0115   -1.4759   -0.2219 C   0  0  2  0  0  0
    7.3408   -2.2821   -0.4927 C   0  0  2  0  0  0
    7.9317   -1.6881   -1.6451 O   0  0
    7.0380   -3.8432   -0.6858 C   0  0  2  0  0  0
    7.5102   -4.3274   -1.9578 O   0  0
    8.7820   -4.7532   -2.1471 C   0  0
    9.6794   -4.7681   -1.3042 O   0  0
    9.0227   -5.2285   -3.5735 C   0  0
    5.5443   -4.3238   -0.4397 C   0  0  2  0  0  0
    5.2799   -4.4672    1.1002 C   0  0
    3.8191   -4.7381    1.5120 C   0  0
    5.3284   -5.7644   -0.9771 C   0  0
    4.6035   -6.0926   -2.0687 C   0  0
    3.9324   -5.0731   -2.9776 C   0  0
    4.6330   -3.7301   -2.7135 N   0  3  1  0  0  0
    4.1689   -2.4836   -3.4495 C   0  0
    4.9511   -1.4299   -2.6781 C   0  0
    4.8536   -1.8275   -1.1768 C   0  0  2  0  0  0
    4.5606   -3.3603   -1.2140 C   0  0  2  0  0  0
    8.3833   -2.1408    0.6614 C   0  0
    9.5290   -1.7139    0.4797 O   0  0
    7.8972   -2.5388    1.8597 O   0  0
    8.7010   -2.4755    3.0287 C   0  0
    4.4374    5.4820   -2.3979 H   0  0
    2.7349    5.5952   -2.8297 H   0  0
    3.7581    4.3691   -3.5785 H   0  0
    4.0409    3.2388   -1.3494 H   0  0
    3.0977    4.4842   -0.5828 H   0  0
    0.8784    3.9189   -0.1687 H   0  0
   -1.2627    3.1183   -1.1143 H   0  0
   -1.3144    1.1336   -2.7625 H   0  0
   -0.4952    2.5798   -3.3717 H   0  0
    1.8623    2.5326   -3.9094 H   0  0
    2.9398    1.5000   -2.9175 H   0  0
    0.4747   -0.0440   -4.3989 H   0  0
    1.8550   -0.6092   -3.4190 H   0  0
   -1.8434   -2.0712   -0.0246 H   0  0
   -3.2199   -4.1480   -1.4479 H   0  0
   -3.3165   -5.1519   -3.7124 H   0  0
   -1.9151   -4.3116   -5.5349 H   0  0
   -0.3548   -2.4344   -5.1752 H   0  0
   -0.6657    1.8648    0.8745 H   0  0
   -1.7589    1.0585   -0.1423 H   0  0
   -1.4681    0.2749    4.2749 H   0  0
   -0.1128   -0.8506    4.1505 H   0  0
   -1.7281   -1.3422    3.6137 H   0  0
    1.9832   -1.7575   -1.0985 H   0  0
    4.2434    1.8612    1.3706 H   0  0
    1.4201    3.4280    2.9705 H   0  0
    2.7644    3.5737    1.8460 H   0  0
    2.8337    2.4027    3.1852 H   0  0
    6.5876    1.5757    1.1269 H   0  0
    7.8268    0.5072    0.5105 H   0  0
    6.8124    0.0000    1.8821 H   0  0
    5.7296   -1.8500    0.7603 H   0  0
    8.7575   -2.1424   -1.8300 H   0  0
    7.6188   -4.4166    0.0417 H   0  0
    8.3538   -6.0546   -3.8155 H   0  0
   10.0506   -5.5707   -3.6972 H   0  0
    8.8436   -4.4165   -4.2786 H   0  0
    5.9025   -5.2684    1.5038 H   0  0
    5.6019   -3.6006    1.6642 H   0  0
    3.7496   -4.9135    2.5858 H   0  0
    3.4089   -5.6161    1.0126 H   0  0
    3.1742   -3.8887    1.2859 H   0  0
    5.7929   -6.5844   -0.4471 H   0  0
    4.5289   -7.1394   -2.3256 H   0  0
    4.0825   -5.2974   -4.0342 H   0  0
    2.8671   -4.9710   -2.7649 H   0  0
    4.4343   -2.5925   -4.5016 H   0  0
    3.0849   -2.4537   -3.3404 H   0  0
    5.9697   -1.4865   -3.0520 H   0  0
    4.6036   -0.4174   -2.8900 H   0  0
    3.5170   -3.5408   -0.9511 H   0  0
    8.1361   -2.8412    3.8861 H   0  0
    9.0082   -1.4496    3.2369 H   0  0
    9.5956   -3.0909    2.9236 H   0  0
    1.0284    0.7931   -1.7334 H   0  0
    5.6078   -3.8473   -2.9535 H   0  0
  1  2  1  0
  1 58  1  0
  1 59  1  0
  1 60  1  0
  2  3  1  0
  2 61  1  0
  2 62  1  0
  3  4  2  0
  3  8  1  0
  4  5  1  0
  4 63  1  0
  5  6  1  0
  5 64  1  0
  5 20  1  0
  6  7  1  0
  6 65  1  0
  6 66  1  0
  7  8  1  0
  7  9  1  0
  7112  1  0
  8 67  1  0
  8 68  1  0
  9 10  1  0
  9 69  1  0
  9 70  1  0
 10 11  2  0
 10 18  1  0
 11 12  1  0
 11 19  1  0
 12 13  1  0
 12 71  1  0
 13 14  2  0
 13 18  1  0
 14 15  1  0
 14 72  1  0
 15 16  2  0
 15 73  1  0
 16 17  1  0
 16 74  1  0
 17 18  2  0
 17 75  1  0
 19 20  1  0
 19 21  1  0
 19 25  1  0
 20 76  1  0
 20 77  1  0
 21 22  2  0
 21 23  1  0
 23 24  1  0
 24 78  1  0
 24 79  1  0
 24 80  1  0
 25 26  2  0
 25 30  1  0
 26 27  1  0
 26 81  1  0
 27 28  2  0
 27 52  1  0
 28 29  1  0
 28 33  1  0
 29 30  2  0
 29 82  1  0
 30 31  1  0
 31 32  1  0
 32 83  1  0
 32 84  1  0
 32 85  1  0
 33 34  1  0
 33 35  1  0
 34 86  1  0
 34 87  1  0
 34 88  1  0
 35 36  1  0
 35 89  1  0
 35 52  1  0
 36 37  1  0
 36 38  1  0
 36 54  1  0
 37 90  1  0
 38 39  1  0
 38 43  1  0
 38 91  1  0
 39 40  1  0
 40 41  2  0
 40 42  1  0
 42 92  1  0
 42 93  1  0
 42 94  1  0
 43 44  1  0
 43 46  1  0
 43 53  1  0
 44 45  1  0
 44 95  1  0
 44 96  1  0
 45 97  1  0
 45 98  1  0
 45 99  1  0
 46 47  2  0
 46100  1  0
 47 48  1  0
 47101  1  0
 48 49  1  0
 48102  1  0
 48103  1  0
 49 50  1  0
 49 53  1  0
 49113  1  0
 50 51  1  0
 50104  1  0
 50105  1  0
 51 52  1  0
 51106  1  0
 51107  1  0
 52 53  1  0
 53108  1  0
 54 55  2  0
 54 56  1  0
 56 57  1  0
 57109  1  0
 57110  1  0
 57111  1  0
M  CHG  2   7   1  49   1
M  END
> <Mol2_MolInfo_Name>
14460

> <Mol2_MolInfo_Type>
SMALL

> <Mol2_MolInfo_Charge>
USER_CHARGES

> <Mol2_Substructures>
     1 ****        1 GROUP             0       ****    0 ROOT    

> <Name>
14460

$$$$
14460
  SciTegic06232017503D

113121  0  0  0  0            999 V2000
   -4.1030    4.7437   -2.4770 C   0  0
   -2.6089    5.0879   -2.5649 C   0  0
   -1.6923    3.8734   -2.5155 C   0  0
   -0.9092    3.6250   -1.4410 C   0  0
    0.0209    2.4213   -1.2876 C   0  0  2  0  0  0
    0.2810    1.7846   -2.6814 C   0  0
   -1.0342    1.5991   -3.4711 N   0  3  2  0  0  0
   -1.6518    2.9890   -3.7682 C   0  0
   -2.0547    0.6479   -2.7955 C   0  0
   -1.3894   -0.6386   -2.3133 C   0  0
   -0.5949   -0.8788   -1.1716 C   0  0
   -0.2837   -2.2263   -1.1837 N   0  0
   -0.7824   -2.8698   -2.2858 C   0  0
   -0.6757   -4.2020   -2.6996 C   0  0
   -1.3107   -4.5455   -3.8928 C   0  0
   -2.0213   -3.6094   -4.6382 C   0  0
   -2.1236   -2.2840   -4.2185 C   0  0
   -1.4949   -1.8891   -3.0236 C   0  0
   -0.0400    0.0246   -0.0203 C   0  0  1  0  0  0
   -0.5598    1.5023   -0.1672 C   0  0
   -0.5961   -0.5799    1.3185 C   0  0
   -1.5371   -0.0653    1.9305 O   0  0
    0.0607   -1.6994    1.7227 O   0  0
   -0.3060   -2.3616    2.9240 C   0  0
    1.5326    0.0510    0.0729 C   0  0
    2.3079   -0.5360   -0.9441 C   0  0
    3.6967   -0.5644   -0.8878 C   0  0
    4.3566    0.0289    0.1895 C   0  0
    3.6247    0.6913    1.1696 C   0  0
    2.2173    0.6955    1.1385 C   0  0
    1.4661    1.3207    2.1192 O   0  0
    2.1037    1.9602    3.2197 C   0  0
    5.7367   -0.0873   -0.0391 N   0  0
    6.7016   -0.0688    1.0542 C   0  0
    5.8410   -1.2833   -0.8852 C   0  0  2  0  0  0
    7.1542   -1.8937   -1.5086 C   0  0  2  0  0  0
    7.8560   -0.7966   -2.0907 O   0  0
    6.8218   -3.0550   -2.5575 C   0  0  2  0  0  0
    7.1542   -2.6707   -3.9046 O   0  0
    8.3722   -2.9062   -4.4493 C   0  0
    9.3286   -3.4489   -3.8951 O   0  0
    8.4631   -2.4111   -5.8863 C   0  0
    5.3443   -3.6349   -2.5297 C   0  0  2  0  0  0
    5.0762   -4.5308   -1.2682 C   0  0
    6.0464   -5.7018   -0.9960 C   0  0
    5.0802   -4.5929   -3.7261 C   0  0
    4.2521   -4.3432   -4.7661 C   0  0
    3.5105   -3.0280   -4.9653 C   0  0
    4.2907   -1.9990   -4.1367 N   0  3  1  0  0  0
    3.9269   -0.5228   -4.1450 C   0  0
    4.8513   -0.0549   -3.0300 C   0  0
    4.6970   -1.1028   -1.8947 C   0  0  2  0  0  0
    4.3377   -2.4219   -2.6493 C   0  0  2  0  0  0
    8.0943   -2.5291   -0.4363 C   0  0
    7.6426   -3.0510    0.5868 O   0  0
    9.4145   -2.4796   -0.7540 O   0  0
   10.3909   -3.0375    0.1127 C   0  0
   -4.7106    5.6489   -2.4981 H   0  0
   -4.3327    4.2145   -1.5513 H   0  0
   -4.4226    4.1161   -3.3091 H   0  0
   -2.4106    5.6346   -3.4878 H   0  0
   -2.3598    5.7756   -1.7548 H   0  0
   -0.9778    4.3060   -0.6043 H   0  0
    0.9866    2.7898   -0.9382 H   0  0
    0.8854    2.4473   -3.3037 H   0  0
    0.7987    0.8311   -2.6694 H   0  0
   -2.6275    2.8223   -4.2262 H   0  0
   -0.9855    3.4412   -4.5041 H   0  0
   -2.5790    1.2138   -2.0304 H   0  0
   -2.7812    0.4650   -3.5879 H   0  0
    0.2742   -2.6416   -0.4513 H   0  0
   -0.1295   -4.9378   -2.1277 H   0  0
   -1.2525   -5.5646   -4.2470 H   0  0
   -2.5024   -3.9163   -5.5556 H   0  0
   -2.6807   -1.5748   -4.8128 H   0  0
   -0.3963    2.0455    0.7644 H   0  0
   -1.6470    1.4804   -0.2131 H   0  0
    0.3291   -3.2345    3.0747 H   0  0
   -1.3431   -2.6980    2.8853 H   0  0
   -0.1869   -1.7018    3.7846 H   0  0
    1.8444   -0.9830   -1.8073 H   0  0
    4.1611    1.1879    1.9632 H   0  0
    1.3433    2.3726    3.8827 H   0  0
    2.7365    2.7860    2.8914 H   0  0
    2.7005    1.2564    3.8020 H   0  0
    6.5605    0.8271    1.6591 H   0  0
    7.7252   -0.0406    0.6814 H   0  0
    6.5808   -0.9318    1.7099 H   0  0
    5.5266   -2.0573   -0.1884 H   0  0
    7.9678   -0.1164   -1.4222 H   0  0
    7.4657   -3.9158   -2.3682 H   0  0
    8.2960   -1.3345   -5.9265 H   0  0
    7.7129   -2.9041   -6.5046 H   0  0
    9.4473   -2.6232   -6.3047 H   0  0
    5.0268   -3.9498   -0.3547 H   0  0
    4.0709   -4.9490   -1.3478 H   0  0
    5.7389   -6.2459   -0.1024 H   0  0
    7.0660   -5.3628   -0.8193 H   0  0
    6.0705   -6.4249   -1.8098 H   0  0
    5.5900   -5.5442   -3.7525 H   0  0
    4.1546   -5.1076   -5.5234 H   0  0
    3.5536   -2.6854   -5.9997 H   0  0
    2.4746   -3.0665   -4.6243 H   0  0
    4.1480   -0.1281   -5.1372 H   0  0
    2.8571   -0.4505   -3.9442 H   0  0
    5.8616   -0.0620   -3.4368 H   0  0
    4.6592    0.9720   -2.7145 H   0  0
    3.3162   -2.7250   -2.4083 H   0  0
   11.3853   -2.8952   -0.3109 H   0  0
   10.2284   -4.1079    0.2474 H   0  0
   10.3665   -2.5566    1.0918 H   0  0
   -0.7825    1.1832   -4.3567 H   0  0
    5.2420   -2.0286   -4.4774 H   0  0
  1  2  1  0
  1 58  1  0
  1 59  1  0
  1 60  1  0
  2  3  1  0
  2 61  1  0
  2 62  1  0
  3  4  2  0
  3  8  1  0
  4  5  1  0
  4 63  1  0
  5  6  1  0
  5 64  1  0
  5 20  1  0
  6  7  1  0
  6 65  1  0
  6 66  1  0
  7  8  1  0
  7  9  1  0
  7112  1  0
  8 67  1  0
  8 68  1  0
  9 10  1  0
  9 69  1  0
  9 70  1  0
 10 11  2  0
 10 18  1  0
 11 12  1  0
 11 19  1  0
 12 13  1  0
 12 71  1  0
 13 14  2  0
 13 18  1  0
 14 15  1  0
 14 72  1  0
 15 16  2  0
 15 73  1  0
 16 17  1  0
 16 74  1  0
 17 18  2  0
 17 75  1  0
 19 20  1  0
 19 21  1  0
 19 25  1  0
 20 76  1  0
 20 77  1  0
 21 22  2  0
 21 23  1  0
 23 24  1  0
 24 78  1  0
 24 79  1  0
 24 80  1  0
 25 26  2  0
 25 30  1  0
 26 27  1  0
 26 81  1  0
 27 28  2  0
 27 52  1  0
 28 29  1  0
 28 33  1  0
 29 30  2  0
 29 82  1  0
 30 31  1  0
 31 32  1  0
 32 83  1  0
 32 84  1  0
 32 85  1  0
 33 34  1  0
 33 35  1  0
 34 86  1  0
 34 87  1  0
 34 88  1  0
 35 36  1  0
 35 89  1  0
 35 52  1  0
 36 37  1  0
 36 38  1  0
 36 54  1  0
 37 90  1  0
 38 39  1  0
 38 43  1  0
 38 91  1  0
 39 40  1  0
 40 41  2  0
 40 42  1  0
 42 92  1  0
 42 93  1  0
 42 94  1  0
 43 44  1  0
 43 46  1  0
 43 53  1  0
 44 45  1  0
 44 95  1  0
 44 96  1  0
 45 97  1  0
 45 98  1  0
 45 99  1  0
 46 47  2  0
 46100  1  0
 47 48  1  0
 47101  1  0
 48 49  1  0
 48102  1  0
 48103  1  0
 49 50  1  0
 49 53  1  0
 49113  1  0
 50 51  1  0
 50104  1  0
 50105  1  0
 51 52  1  0
 51106  1  0
 51107  1  0
 52 53  1  0
 53108  1  0
 54 55  2  0
 54 56  1  0
 56 57  1  0
 57109  1  0
 57110  1  0
 57111  1  0
M  CHG  2   7   1  49   1
M  END
> <Mol2_MolInfo_Name>
14460

> <Mol2_MolInfo_Type>
SMALL

> <Mol2_MolInfo_Charge>
USER_CHARGES

> <Mol2_Substructures>
     1 ****        1 GROUP             0       ****    0 ROOT    

> <Name>
14460

$$$$
14460
  SciTegic06232017503D

113121  0  0  0  0            999 V2000
   -5.5042    2.1848   -3.0052 C   0  0
   -4.1981    1.3995   -2.8178 C   0  0
   -3.7651    1.2562   -1.3657 C   0  0
   -2.6144    1.7951   -0.9079 C   0  0
   -2.0857    1.6569    0.5211 C   0  0  1  0  0  0
   -3.0461    0.8526    1.4468 C   0  0
   -3.8630   -0.2200    0.6759 N   0  3  1  0  0  0
   -4.6906    0.4716   -0.4339 C   0  0
   -3.0532   -1.4127    0.0994 C   0  0
   -1.8833   -1.7594    0.9972 C   0  0
   -0.6065   -1.1838    1.0077 C   0  0
    0.0600   -1.7185    2.0922 N   0  0
   -0.6757   -2.6877    2.7263 C   0  0
   -0.3750   -3.5061    3.8205 C   0  0
   -1.3664   -4.3954    4.2350 C   0  0
   -2.6009   -4.4657    3.5953 C   0  0
   -2.8945   -3.6459    2.5068 C   0  0
   -1.9222   -2.7396    2.0495 C   0  0
    0.0550   -0.0708    0.1459 C   0  0  2  0  0  0
   -0.5603    1.3148    0.6110 C   0  0
   -0.1568   -0.2669   -1.3921 C   0  0
   -0.5395   -1.3354   -1.8767 O   0  0
    0.1724    0.8305   -2.1208 O   0  0
    0.0552    0.8242   -3.5358 C   0  0
    1.6253   -0.1239    0.2863 C   0  0
    2.3502    1.0203    0.6734 C   0  0
    3.7419    1.0212    0.7336 C   0  0
    4.4419   -0.1434    0.4355 C   0  0
    3.7586   -1.3138    0.1292 C   0  0
    2.3567   -1.3150    0.0230 C   0  0
    1.6475   -2.4526   -0.3249 O   0  0
    2.3300   -3.6683   -0.6112 C   0  0
    5.7930    0.1197    0.6723 N   0  0
    6.8913   -0.7154    0.1992 C   0  0
    5.9936    1.5665    0.4736 C   0  0  1  0  0  0
    6.2970    2.0779   -1.0061 C   0  0  1  0  0  0
    5.4974    1.3680   -1.9470 O   0  0
    5.9791    3.6066   -1.1924 C   0  0  2  0  0  0
    6.9619    4.4205   -0.5174 O   0  0
    7.7120    5.3527   -1.1552 C   0  0
    7.6621    5.6405   -2.3512 O   0  0
    8.6763    6.0555   -0.2092 C   0  0
    4.5236    4.0384   -0.7606 C   0  0  2  0  0  0
    3.4066    3.4983   -1.7168 C   0  0
    3.5686    3.7617   -3.2286 C   0  0
    4.3900    5.5765   -0.8090 C   0  0
    4.3947    6.3921    0.2636 C   0  0
    4.5457    5.9113    1.6971 C   0  0
    5.0936    4.4676    1.6869 N   0  3  1  0  0  0
    5.0669    3.7367    3.0330 C   0  0
    4.7932    2.2781    2.6668 C   0  0
    4.7009    2.1322    1.1243 C   0  0  2  0  0  0
    4.2818    3.5769    0.7224 C   0  0  2  0  0  0
    7.7830    1.8119   -1.4293 C   0  0
    8.0882    1.3324   -2.5269 O   0  0
    8.6793    2.1469   -0.4686 O   0  0
   10.0726    1.9775   -0.6832 C   0  0
   -5.7601    2.2663   -4.0620 H   0  0
   -5.4175    3.1966   -2.6076 H   0  0
   -6.3402    1.6977   -2.5021 H   0  0
   -4.3086    0.3995   -3.2394 H   0  0
   -3.4088    1.8806   -3.3980 H   0  0
   -2.0089    2.3495   -1.6108 H   0  0
   -2.1358    2.6769    0.9068 H   0  0
   -2.5522    0.3802    2.2958 H   0  0
   -3.8145    1.5046    1.8662 H   0  0
   -5.3773    1.1473    0.0777 H   0  0
   -5.2596   -0.3088   -0.9419 H   0  0
   -3.7856   -2.2164    0.0177 H   0  0
   -2.7650   -1.1319   -0.9083 H   0  0
    0.9987   -1.4298    2.3268 H   0  0
    0.5775   -3.4581    4.3280 H   0  0
   -1.1733   -5.0452    5.0764 H   0  0
   -3.3430   -5.1662    3.9499 H   0  0
   -3.8588   -3.7131    2.0253 H   0  0
   -0.0621    2.1237    0.0735 H   0  0
   -0.2755    1.4638    1.6544 H   0  0
    0.3700    1.7871   -3.9375 H   0  0
   -0.9776    0.6496   -3.8408 H   0  0
    0.6836    0.0498   -3.9782 H   0  0
    1.8524    1.9414    0.9214 H   0  0
    4.3284   -2.2138   -0.0416 H   0  0
    1.5999   -4.4337   -0.8739 H   0  0
    2.8875   -4.0282    0.2548 H   0  0
    3.0086   -3.5560   -1.4579 H   0  0
    6.7647   -1.7334    0.5680 H   0  0
    7.8512   -0.3521    0.5677 H   0  0
    6.9217   -0.7647   -0.8891 H   0  0
    6.8279    1.8746    1.1056 H   0  0
    5.6578    0.4281   -1.8356 H   0  0
    6.0797    3.8222   -2.2573 H   0  0
    8.1319    6.7334    0.4481 H   0  0
    9.4110    6.6342   -0.7696 H   0  0
    9.2078    5.3274    0.4039 H   0  0
    3.2764    2.4270   -1.5825 H   0  0
    2.4447    3.9114   -1.4067 H   0  0
    2.7203    3.3494   -3.7757 H   0  0
    4.4634    3.2915   -3.6347 H   0  0
    3.6117    4.8242   -3.4635 H   0  0
    4.3224    6.0630   -1.7706 H   0  0
    4.3039    7.4538    0.0853 H   0  0
    5.2589    6.5085    2.2661 H   0  0
    3.5773    5.9151    2.1999 H   0  0
    6.0361    3.9108    3.5014 H   0  0
    4.2566    4.1588    3.6298 H   0  0
    5.5234    1.5954    3.1038 H   0  0
    3.8441    1.9950    3.1260 H   0  0
    3.2443    3.7531    1.0192 H   0  0
   10.6253    2.3168    0.1927 H   0  0
   10.4092    2.5582   -1.5432 H   0  0
   10.3167    0.9283   -0.8549 H   0  0
   -4.5134   -0.6113    1.3428 H   0  0
    6.0466    4.4662    1.3499 H   0  0
  1  2  1  0
  1 58  1  0
  1 59  1  0
  1 60  1  0
  2  3  1  0
  2 61  1  0
  2 62  1  0
  3  4  2  0
  3  8  1  0
  4  5  1  0
  4 63  1  0
  5  6  1  0
  5 64  1  0
  5 20  1  0
  6  7  1  0
  6 65  1  0
  6 66  1  0
  7  8  1  0
  7  9  1  0
  7112  1  0
  8 67  1  0
  8 68  1  0
  9 10  1  0
  9 69  1  0
  9 70  1  0
 10 11  2  0
 10 18  1  0
 11 12  1  0
 11 19  1  0
 12 13  1  0
 12 71  1  0
 13 14  2  0
 13 18  1  0
 14 15  1  0
 14 72  1  0
 15 16  2  0
 15 73  1  0
 16 17  1  0
 16 74  1  0
 17 18  2  0
 17 75  1  0
 19 20  1  0
 19 21  1  0
 19 25  1  0
 20 76  1  0
 20 77  1  0
 21 22  2  0
 21 23  1  0
 23 24  1  0
 24 78  1  0
 24 79  1  0
 24 80  1  0
 25 26  2  0
 25 30  1  0
 26 27  1  0
 26 81  1  0
 27 28  2  0
 27 52  1  0
 28 29  1  0
 28 33  1  0
 29 30  2  0
 29 82  1  0
 30 31  1  0
 31 32  1  0
 32 83  1  0
 32 84  1  0
 32 85  1  0
 33 34  1  0
 33 35  1  0
 34 86  1  0
 34 87  1  0
 34 88  1  0
 35 36  1  0
 35 89  1  0
 35 52  1  0
 36 37  1  0
 36 38  1  0
 36 54  1  0
 37 90  1  0
 38 39  1  0
 38 43  1  0
 38 91  1  0
 39 40  1  0
 40 41  2  0
 40 42  1  0
 42 92  1  0
 42 93  1  0
 42 94  1  0
 43 44  1  0
 43 46  1  0
 43 53  1  0
 44 45  1  0
 44 95  1  0
 44 96  1  0
 45 97  1  0
 45 98  1  0
 45 99  1  0
 46 47  2  0
 46100  1  0
 47 48  1  0
 47101  1  0
 48 49  1  0
 48102  1  0
 48103  1  0
 49 50  1  0
 49 53  1  0
 49113  1  0
 50 51  1  0
 50104  1  0
 50105  1  0
 51 52  1  0
 51106  1  0
 51107  1  0
 52 53  1  0
 53108  1  0
 54 55  2  0
 54 56  1  0
 56 57  1  0
 57109  1  0
 57110  1  0
 57111  1  0
M  CHG  2   7   1  49   1
M  END
> <Mol2_MolInfo_Name>
14460

> <Mol2_MolInfo_Type>
SMALL

> <Mol2_MolInfo_Charge>
USER_CHARGES

> <Mol2_Substructures>
     1 ****        1 GROUP             0       ****    0 ROOT    

> <Name>
14460

$$$$
14460
  SciTegic06232017503D

113121  0  0  0  0            999 V2000
    3.3157    4.9925    2.6058 C   0  0
    3.0107    3.9995    1.4756 C   0  0
    1.7456    3.1829    1.6951 C   0  0
    0.6863    3.2605    0.8446 C   0  0
   -0.6147    2.4457    0.9948 C   0  0  2  0  0  0
   -0.7295    1.9219    2.4311 C   0  0
    0.6162    1.2119    2.6301 N   0  3  1  0  0  0
    1.7464    2.2182    2.8940 C   0  0
    0.5500   -0.1246    3.3572 C   0  0
   -0.3518   -1.0078    2.5045 C   0  0
   -0.5771   -0.9707    1.1045 C   0  0
   -1.5755   -1.8978    0.8624 N   0  0
   -1.9413   -2.5921    1.9883 C   0  0
   -2.8652   -3.6265    2.1739 C   0  0
   -3.0085   -4.1208    3.4706 C   0  0
   -2.2707   -3.6092    4.5346 C   0  0
   -1.3541   -2.5766    4.3424 C   0  0
   -1.1741   -2.0519    3.0508 C   0  0
    0.0115   -0.0828   -0.0668 C   0  0  2  0  0  0
   -0.7896    1.3146   -0.0862 C   0  0
   -0.1619   -0.8465   -1.4361 C   0  0
    0.1491   -2.0385   -1.5406 O   0  0
   -0.6618   -0.1048   -2.4551 O   0  0
   -0.8500   -0.6698   -3.7445 C   0  0
    1.5811    0.0530   -0.0204 C   0  0
    2.3505   -0.8817    0.7099 C   0  0
    3.7478   -0.8511    0.7259 C   0  0
    4.4016    0.1415   -0.0002 C   0  0
    3.6820    1.0444   -0.7716 C   0  0
    2.2796    1.0010   -0.8121 C   0  0
    1.5538    1.8269   -1.6512 O   0  0
    2.2112    2.7831   -2.4764 C   0  0
    5.7628   -0.1493    0.0180 N   0  0
    6.8139    0.7894   -0.3578 C   0  0
    6.0468   -0.9959    1.1844 C   0  0  1  0  0  0
    6.5437   -0.3237    2.5281 C   0  0  1  0  0  0
    5.7331    0.8147    2.8010 O   0  0
    6.4679   -1.3494    3.7143 C   0  0  2  0  0  0
    7.3517   -2.4635    3.4663 O   0  0
    8.3419   -2.8184    4.3218 C   0  0
    8.6111   -2.2766    5.3940 O   0  0
    9.1371   -4.0131    3.8137 C   0  0
    5.0289   -1.8852    4.0415 C   0  0  2  0  0  0
    4.1601   -0.7587    4.7012 C   0  0
    2.9410   -1.1936    5.5490 C   0  0
    5.1312   -2.9822    5.1288 C   0  0
    4.7323   -4.2606    4.9913 C   0  0
    4.1787   -4.8265    3.7006 C   0  0
    4.7500   -3.9672    2.5600 N   0  3  1  0  0  0
    4.2801   -4.3045    1.1508 C   0  0
    4.8082   -3.1103    0.3769 C   0  0
    4.7476   -1.8552    1.3046 C   0  0  2  0  0  0
    4.3894   -2.4721    2.7159 C   0  0  2  0  0  0
    8.0148    0.2107    2.4450 C   0  0
    8.3432    1.3177    2.8862 O   0  0
    8.8694   -0.6545    1.8448 O   0  0
   10.2453   -0.3339    1.6984 C   0  0
    4.2244    5.5559    2.3921 H   0  0
    3.4629    4.4824    3.5584 H   0  0
    2.5039    5.7099    2.7309 H   0  0
    2.9463    4.5432    0.5317 H   0  0
    3.8473    3.3081    1.3639 H   0  0
    0.7598    3.9362    0.0044 H   0  0
   -1.4310    3.1555    0.8525 H   0  0
   -0.7917    2.7187    3.1749 H   0  0
   -1.5694    1.2432    2.5811 H   0  0
    2.6699    1.6425    2.9505 H   0  0
    1.5400    2.7024    3.8493 H   0  0
    1.5756   -0.4782    3.3860 H   0  0
    0.1876    0.1062    4.3600 H   0  0
   -1.9382   -2.0440   -0.0687 H   0  0
   -3.4460   -4.0297    1.3571 H   0  0
   -3.7125   -4.9193    3.6547 H   0  0
   -2.4136   -4.0173    5.5247 H   0  0
   -0.7933   -2.1886    5.1798 H   0  0
   -1.8487    1.0498   -0.0612 H   0  0
   -0.7052    1.8255   -1.0434 H   0  0
   -1.2490    0.0837   -4.4237 H   0  0
   -1.5542   -1.5024   -3.7093 H   0  0
    0.0944   -1.0306   -4.1547 H   0  0
    1.8630   -1.6937    1.2245 H   0  0
    4.2303    1.7406   -1.3863 H   0  0
    1.4643    3.3401   -3.0415 H   0  0
    2.8763    2.3017   -3.1948 H   0  0
    2.7782    3.5021   -1.8833 H   0  0
    6.5919    1.2255   -1.3320 H   0  0
    7.7795    0.2900   -0.4403 H   0  0
    6.8910    1.6094    0.3562 H   0  0
    6.8534   -1.6628    0.8786 H   0  0
    6.0676    1.2419    3.5936 H   0  0
    6.8285   -0.8349    4.6082 H   0  0
    8.5090   -4.9038    3.7961 H   0  0
    9.9937   -4.2084    4.4594 H   0  0
    9.5037   -3.8241    2.8044 H   0  0
    4.7849   -0.1280    5.3360 H   0  0
    3.7758   -0.1056    3.9226 H   0  0
    2.3192   -0.3344    5.8020 H   0  0
    3.2445   -1.6490    6.4920 H   0  0
    2.3171   -1.9149    5.0207 H   0  0
    5.5374   -2.7035    6.0914 H   0  0
    4.8417   -4.9181    5.8418 H   0  0
    4.5213   -5.8455    3.5169 H   0  0
    3.0884   -4.7873    3.6738 H   0  0
    4.7064   -5.2687    0.8710 H   0  0
    3.1917   -4.3832    1.1871 H   0  0
    5.8334   -3.3580    0.0988 H   0  0
    4.2456   -2.9895   -0.5508 H   0  0
    3.3031   -2.5083    2.8241 H   0  0
   10.7657   -1.1542    1.2040 H   0  0
   10.7144   -0.1710    2.6699 H   0  0
   10.3767    0.5651    1.0946 H   0  0
    0.8261    0.8890    1.6953 H   0  0
    5.7563   -4.0572    2.5755 H   0  0
  1  2  1  0
  1 58  1  0
  1 59  1  0
  1 60  1  0
  2  3  1  0
  2 61  1  0
  2 62  1  0
  3  4  2  0
  3  8  1  0
  4  5  1  0
  4 63  1  0
  5  6  1  0
  5 64  1  0
  5 20  1  0
  6  7  1  0
  6 65  1  0
  6 66  1  0
  7  8  1  0
  7  9  1  0
  7112  1  0
  8 67  1  0
  8 68  1  0
  9 10  1  0
  9 69  1  0
  9 70  1  0
 10 11  2  0
 10 18  1  0
 11 12  1  0
 11 19  1  0
 12 13  1  0
 12 71  1  0
 13 14  2  0
 13 18  1  0
 14 15  1  0
 14 72  1  0
 15 16  2  0
 15 73  1  0
 16 17  1  0
 16 74  1  0
 17 18  2  0
 17 75  1  0
 19 20  1  0
 19 21  1  0
 19 25  1  0
 20 76  1  0
 20 77  1  0
 21 22  2  0
 21 23  1  0
 23 24  1  0
 24 78  1  0
 24 79  1  0
 24 80  1  0
 25 26  2  0
 25 30  1  0
 26 27  1  0
 26 81  1  0
 27 28  2  0
 27 52  1  0
 28 29  1  0
 28 33  1  0
 29 30  2  0
 29 82  1  0
 30 31  1  0
 31 32  1  0
 32 83  1  0
 32 84  1  0
 32 85  1  0
 33 34  1  0
 33 35  1  0
 34 86  1  0
 34 87  1  0
 34 88  1  0
 35 36  1  0
 35 89  1  0
 35 52  1  0
 36 37  1  0
 36 38  1  0
 36 54  1  0
 37 90  1  0
 38 39  1  0
 38 43  1  0
 38 91  1  0
 39 40  1  0
 40 41  2  0
 40 42  1  0
 42 92  1  0
 42 93  1  0
 42 94  1  0
 43 44  1  0
 43 46  1  0
 43 53  1  0
 44 45  1  0
 44 95  1  0
 44 96  1  0
 45 97  1  0
 45 98  1  0
 45 99  1  0
 46 47  2  0
 46100  1  0
 47 48  1  0
 47101  1  0
 48 49  1  0
 48102  1  0
 48103  1  0
 49 50  1  0
 49 53  1  0
 49113  1  0
 50 51  1  0
 50104  1  0
 50105  1  0
 51 52  1  0
 51106  1  0
 51107  1  0
 52 53  1  0
 53108  1  0
 54 55  2  0
 54 56  1  0
 56 57  1  0
 57109  1  0
 57110  1  0
 57111  1  0
M  CHG  2   7   1  49   1
M  END
> <Mol2_MolInfo_Name>
14460

> <Mol2_MolInfo_Type>
SMALL

> <Mol2_MolInfo_Charge>
USER_CHARGES

> <Mol2_Substructures>
     1 ****        1 GROUP             0       ****    0 ROOT    

> <Name>
14460

$$$$
14460
  SciTegic06232017503D

113121  0  0  0  0            999 V2000
   -4.9543    1.2026   -4.2980 C   0  0
   -3.4875    0.8927   -3.9676 C   0  0
   -3.1765    0.8956   -2.4782 C   0  0
   -2.3155    1.7967   -1.9319 C   0  0
   -1.9420    1.8547   -0.4355 C   0  0  1  0  0  0
   -2.9698    1.0628    0.3878 C   0  0
   -3.0188   -0.2923   -0.3353 N   0  3  2  0  0  0
   -3.8404   -0.2051   -1.6299 C   0  0
   -3.0546   -1.5311    0.5555 C   0  0
   -1.7956   -1.4386    1.4156 C   0  0
   -0.5500   -0.8093    1.1449 C   0  0
    0.1647   -0.8593    2.3258 N   0  0
   -0.4762   -1.5791    3.3019 C   0  0
   -0.0874   -1.9137    4.6039 C   0  0
   -0.9887   -2.6634    5.3598 C   0  0
   -2.2212   -3.0590    4.8477 C   0  0
   -2.6035   -2.7181    3.5514 C   0  0
   -1.7235   -1.9693    2.7505 C   0  0
    0.0839   -0.0620   -0.0922 C   0  0  2  0  0  0
   -0.4475    1.4489   -0.1446 C   0  0
   -0.1856   -0.7292   -1.4843 C   0  0
    0.0834   -0.1369   -2.5344 O   0  0
   -0.7006   -1.9799   -1.4242 O   0  0
   -0.9785   -2.7093   -2.6101 C   0  0
    1.6596   -0.1369    0.0082 C   0  0
    2.4429    1.0351    0.0187 C   0  0
    3.8357    0.9891    0.0386 C   0  0
    4.4798   -0.2422    0.0845 C   0  0
    3.7416   -1.4162    0.1681 C   0  0
    2.3374   -1.3839    0.1108 C   0  0
    1.5750   -2.5389    0.1680 O   0  0
    2.2022   -3.8127    0.2694 C   0  0
    5.8477    0.0157    0.1987 N   0  0
    6.8936   -0.9770   -0.0199 C   0  0
    6.1011    1.3304   -0.4205 C   0  0  1  0  0  0
    6.3783    1.3720   -1.9913 C   0  0  1  0  0  0
    5.5488    0.4263   -2.6601 O   0  0
    6.1013    2.7885   -2.6139 C   0  0  2  0  0  0
    7.1389    3.7206   -2.2361 O   0  0
    7.8985    4.3837   -3.1434 C   0  0
    7.8189    4.2964   -4.3688 O   0  0
    8.9137    5.3031   -2.4782 C   0  0
    4.6786    3.3891   -2.2966 C   0  0  2  0  0  0
    3.5174    2.6330   -3.0248 C   0  0
    3.6352    2.4403   -4.5514 C   0  0
    4.5945    4.8491   -2.7954 C   0  0
    4.6682    5.9436   -2.0125 C   0  0
    4.8567    5.8998   -0.5052 C   0  0
    5.3539    4.4942   -0.1032 N   0  3  1  0  0  0
    5.3597    4.1924    1.3988 C   0  0
    4.9987    2.7097    1.4886 C   0  0
    4.8507    2.1192    0.0612 C   0  0  2  0  0  0
    4.4726    3.3984   -0.7394 C   0  0  2  0  0  0
    7.8518    0.9744   -2.3434 C   0  0
    8.7631    1.0778   -1.5175 O   0  0
    8.0242    0.5634   -3.6277 O   0  0
    9.3107    0.2003   -4.1065 C   0  0
   -5.1186    1.1956   -5.3758 H   0  0
   -5.2434    2.1864   -3.9265 H   0  0
   -5.6287    0.4668   -3.8589 H   0  0
   -3.2205   -0.0852   -4.3701 H   0  0
   -2.8484    1.6106   -4.4847 H   0  0
   -1.8604    2.5237   -2.5894 H   0  0
   -2.0480    2.9013   -0.1460 H   0  0
   -2.6963    0.9522    1.4372 H   0  0
   -3.9732    1.4904    0.3390 H   0  0
   -4.8714    0.0159   -1.3502 H   0  0
   -3.7786   -1.1858   -2.1029 H   0  0
   -3.9978   -1.4578    1.0990 H   0  0
   -3.0729   -2.3923   -0.1131 H   0  0
    1.0817   -0.4428    2.3996 H   0  0
    0.8643   -1.6095    5.0141 H   0  0
   -0.7254   -2.9424    6.3698 H   0  0
   -2.8921   -3.6365    5.4670 H   0  0
   -3.5659   -3.0303    3.1730 H   0  0
    0.1253    2.0059   -0.8874 H   0  0
   -0.1869    1.9068    0.8114 H   0  0
   -1.3876   -3.6866   -2.3547 H   0  0
   -0.0715   -2.8630   -3.1966 H   0  0
   -1.7083   -2.1858   -3.2295 H   0  0
    1.9937    2.0125    0.0047 H   0  0
    4.2711   -2.3509    0.2675 H   0  0
    1.4358   -4.5873    0.2920 H   0  0
    2.7848   -3.8996    1.1878 H   0  0
    2.8464   -4.0115   -0.5884 H   0  0
    6.6984   -1.8581    0.5917 H   0  0
    7.8693   -0.5901    0.2747 H   0  0
    6.9357   -1.3042   -1.0584 H   0  0
    6.9687    1.7717    0.0734 H   0  0
    5.6620   -0.4296   -2.2401 H   0  0
    6.1688    2.6752   -3.6970 H   0  0
    8.4037    6.1158   -1.9609 H   0  0
    9.5862    5.7352   -3.2198 H   0  0
    9.5111    4.7486   -1.7542 H   0  0
    3.3692    1.6510   -2.5816 H   0  0
    2.5772    3.1504   -2.8239 H   0  0
    2.7570    1.9195   -4.9340 H   0  0
    4.5014    1.8386   -4.8239 H   0  0
    3.7011    3.3864   -5.0866 H   0  0
    4.5068    5.0332   -3.8556 H   0  0
    4.6076    6.9086   -2.4947 H   0  0
    5.6107    6.6061   -0.1562 H   0  0
    3.9085    6.0929   -0.0012 H   0  0
    6.3605    4.4330    1.7586 H   0  0
    4.6030    4.8188    1.8738 H   0  0
    5.7061    2.1453    2.0981 H   0  0
    4.0512    2.6310    2.0254 H   0  0
    3.4541    3.7024   -0.4838 H   0  0
    9.2445   -0.1048   -5.1508 H   0  0
    9.7212   -0.6328   -3.5342 H   0  0
   10.0031    1.0409   -4.0414 H   0  0
   -2.0755   -0.3736   -0.6879 H   0  0
    6.2909    4.3493   -0.4534 H   0  0
  1  2  1  0
  1 58  1  0
  1 59  1  0
  1 60  1  0
  2  3  1  0
  2 61  1  0
  2 62  1  0
  3  4  2  0
  3  8  1  0
  4  5  1  0
  4 63  1  0
  5  6  1  0
  5 64  1  0
  5 20  1  0
  6  7  1  0
  6 65  1  0
  6 66  1  0
  7  8  1  0
  7  9  1  0
  7112  1  0
  8 67  1  0
  8 68  1  0
  9 10  1  0
  9 69  1  0
  9 70  1  0
 10 11  2  0
 10 18  1  0
 11 12  1  0
 11 19  1  0
 12 13  1  0
 12 71  1  0
 13 14  2  0
 13 18  1  0
 14 15  1  0
 14 72  1  0
 15 16  2  0
 15 73  1  0
 16 17  1  0
 16 74  1  0
 17 18  2  0
 17 75  1  0
 19 20  1  0
 19 21  1  0
 19 25  1  0
 20 76  1  0
 20 77  1  0
 21 22  2  0
 21 23  1  0
 23 24  1  0
 24 78  1  0
 24 79  1  0
 24 80  1  0
 25 26  2  0
 25 30  1  0
 26 27  1  0
 26 81  1  0
 27 28  2  0
 27 52  1  0
 28 29  1  0
 28 33  1  0
 29 30  2  0
 29 82  1  0
 30 31  1  0
 31 32  1  0
 32 83  1  0
 32 84  1  0
 32 85  1  0
 33 34  1  0
 33 35  1  0
 34 86  1  0
 34 87  1  0
 34 88  1  0
 35 36  1  0
 35 89  1  0
 35 52  1  0
 36 37  1  0
 36 38  1  0
 36 54  1  0
 37 90  1  0
 38 39  1  0
 38 43  1  0
 38 91  1  0
 39 40  1  0
 40 41  2  0
 40 42  1  0
 42 92  1  0
 42 93  1  0
 42 94  1  0
 43 44  1  0
 43 46  1  0
 43 53  1  0
 44 45  1  0
 44 95  1  0
 44 96  1  0
 45 97  1  0
 45 98  1  0
 45 99  1  0
 46 47  2  0
 46100  1  0
 47 48  1  0
 47101  1  0
 48 49  1  0
 48102  1  0
 48103  1  0
 49 50  1  0
 49 53  1  0
 49113  1  0
 50 51  1  0
 50104  1  0
 50105  1  0
 51 52  1  0
 51106  1  0
 51107  1  0
 52 53  1  0
 53108  1  0
 54 55  2  0
 54 56  1  0
 56 57  1  0
 57109  1  0
 57110  1  0
 57111  1  0
M  CHG  2   7   1  49   1
M  END
> <Mol2_MolInfo_Name>
14460

> <Mol2_MolInfo_Type>
SMALL

> <Mol2_MolInfo_Charge>
USER_CHARGES

> <Mol2_Substructures>
     1 ****        1 GROUP             0       ****    0 ROOT    

> <Name>
14460

$$$$
14460
  SciTegic06232017503D

113121  0  0  0  0            999 V2000
   -2.3269    5.3592    2.8417 C   0  0
   -3.0779    5.0045    1.5503 C   0  0
   -2.9395    3.5450    1.1410 C   0  0
   -2.2054    3.1827    0.0644 C   0  0
   -1.9831    1.7451   -0.4060 C   0  0  2  0  0  0
   -3.0580    0.8165    0.2271 C   0  0
   -3.2071    1.0775    1.7435 N   0  3  2  0  0  0
   -3.7271    2.5200    1.9671 C   0  0
   -1.9329    0.7872    2.5783 C   0  0
   -1.3053   -0.5501    2.1949 C   0  0
   -0.5182   -0.8979    1.0771 C   0  0
   -0.1972   -2.2332    1.2138 N   0  0
   -0.7268   -2.7837    2.3517 C   0  0
   -0.6497   -4.0820    2.8679 C   0  0
   -1.3109   -4.3236    4.0718 C   0  0
   -2.0171   -3.3224    4.7319 C   0  0
   -2.0905   -2.0317    4.2106 C   0  0
   -1.4380   -1.7396    2.9989 C   0  0
    0.0045   -0.1219   -0.1679 C   0  0  2  0  0  0
   -0.4828    1.3795   -0.1531 C   0  0
   -0.5450   -0.7190   -1.5098 C   0  0
   -1.3719   -1.6356   -1.5360 O   0  0
   -0.0234   -0.1179   -2.6088 O   0  0
   -0.4002   -0.5382   -3.9112 C   0  0
    1.5826   -0.2175   -0.1588 C   0  0
    2.3256    0.8189    0.4425 C   0  0
    3.7180    0.8240    0.4567 C   0  0
    4.4091   -0.2395   -0.1100 C   0  0
    3.7161   -1.3329   -0.6139 C   0  0
    2.3093   -1.3424   -0.6475 C   0  0
    1.6091   -2.4446   -1.1111 O   0  0
    2.2965   -3.5752   -1.6366 C   0  0
    5.7668   -0.0223    0.1352 N   0  0
    6.8472   -0.7268   -0.5455 C   0  0
    5.9660    1.4327    0.2763 C   0  0  1  0  0  0
    6.2418    2.2817   -1.0469 C   0  0  1  0  0  0
    5.4672    1.7722   -2.1288 O   0  0
    5.8965    3.8054   -0.8644 C   0  0  2  0  0  0
    6.9023    4.4569   -0.0557 O   0  0
    7.6492    5.4959   -0.5046 C   0  0
    7.5845    6.0170   -1.6182 O   0  0
    8.6306    5.9913    0.5485 C   0  0
    4.4549    4.1099   -0.3027 C   0  0  2  0  0  0
    3.3583    3.8065   -1.3775 C   0  0
    1.9200    4.2678   -1.0561 C   0  0
    4.3374    5.6189    0.0013 C   0  0
    4.3735    6.1649    1.2326 C   0  0
    4.5545    5.3626    2.5114 C   0  0
    5.0971    3.9611    2.1533 N   0  3  1  0  0  0
    5.1105    2.9362    3.2916 C   0  0
    4.8179    1.6027    2.6026 C   0  0
    4.6869    1.8204    1.0710 C   0  0  2  0  0  0
    4.2538    3.3141    1.0345 C   0  0  2  0  0  0
    7.7336    2.1742   -1.5127 C   0  0
    8.6353    1.8551   -0.7328 O   0  0
    7.9305    2.5172   -2.8141 O   0  0
    9.2341    2.5067   -3.3769 C   0  0
   -2.4352    6.4191    3.0736 H   0  0
   -1.2607    5.1494    2.7482 H   0  0
   -2.7055    4.7970    3.6955 H   0  0
   -4.1382    5.2344    1.6649 H   0  0
   -2.7202    5.6517    0.7475 H   0  0
   -1.6962    3.9650   -0.4807 H   0  0
   -2.1540    1.7210   -1.4832 H   0  0
   -4.0457    1.0294   -0.1862 H   0  0
   -2.8974   -0.2492    0.0827 H   0  0
   -3.7136    2.7102    3.0411 H   0  0
   -4.7614    2.5005    1.6212 H   0  0
   -1.2779    1.6502    2.4992 H   0  0
   -2.3089    0.7862    3.6020 H   0  0
    0.3656   -2.7103    0.5238 H   0  0
   -0.1047   -4.8673    2.3648 H   0  0
   -1.2742   -5.3131    4.5040 H   0  0
   -2.5154   -3.5502    5.6630 H   0  0
   -2.6448   -1.2713    4.7401 H   0  0
    0.0957    1.9338   -0.8950 H   0  0
   -0.1785    1.8367    0.7817 H   0  0
    0.1273    0.0547   -4.6583 H   0  0
   -1.4718   -0.4095   -4.0698 H   0  0
   -0.1492   -1.5879   -4.0716 H   0  0
    1.8387    1.6519    0.9158 H   0  0
    4.2855   -2.1781   -0.9674 H   0  0
    1.5670   -4.3113   -1.9751 H   0  0
    2.9185   -4.0533   -0.8784 H   0  0
    2.9139   -3.3058   -2.4948 H   0  0
    6.6820   -1.8028   -0.4865 H   0  0
    7.8077   -0.5220   -0.0726 H   0  0
    6.9025   -0.4639   -1.6015 H   0  0
    6.8154    1.5889    0.9437 H   0  0
    5.6550    2.2954   -2.9120 H   0  0
    5.9454    4.2608   -1.8563 H   0  0
    8.0984    6.2891    1.4520 H   0  0
    9.1908    6.8510    0.1799 H   0  0
    9.3392    5.2031    0.8041 H   0  0
    3.6487    4.2468   -2.3329 H   0  0
    3.2943    2.7360   -1.5568 H   0  0
    1.2330    3.9485   -1.8404 H   0  0
    1.8428    5.3530   -0.9897 H   0  0
    1.5571    3.8498   -0.1180 H   0  0
    4.2430    6.3031   -0.8307 H   0  0
    4.2851    7.2392    1.3070 H   0  0
    5.2819    5.8125    3.1882 H   0  0
    3.5977    5.2468    3.0228 H   0  0
    6.0962    2.9986    3.7542 H   0  0
    4.3227    3.2055    3.9969 H   0  0
    5.5529    0.8353    2.8502 H   0  0
    3.8780    1.2210    3.0063 H   0  0
    3.2292    3.4081    1.4012 H   0  0
    9.1874    2.7992   -4.4259 H   0  0
    9.6765    1.5111   -3.3208 H   0  0
    9.8892    3.2078   -2.8575 H   0  0
   -3.9228    0.4433    2.0699 H   0  0
    6.0392    4.0412    1.7960 H   0  0
  1  2  1  0
  1 58  1  0
  1 59  1  0
  1 60  1  0
  2  3  1  0
  2 61  1  0
  2 62  1  0
  3  4  2  0
  3  8  1  0
  4  5  1  0
  4 63  1  0
  5  6  1  0
  5 64  1  0
  5 20  1  0
  6  7  1  0
  6 65  1  0
  6 66  1  0
  7  8  1  0
  7  9  1  0
  7112  1  0
  8 67  1  0
  8 68  1  0
  9 10  1  0
  9 69  1  0
  9 70  1  0
 10 11  2  0
 10 18  1  0
 11 12  1  0
 11 19  1  0
 12 13  1  0
 12 71  1  0
 13 14  2  0
 13 18  1  0
 14 15  1  0
 14 72  1  0
 15 16  2  0
 15 73  1  0
 16 17  1  0
 16 74  1  0
 17 18  2  0
 17 75  1  0
 19 20  1  0
 19 21  1  0
 19 25  1  0
 20 76  1  0
 20 77  1  0
 21 22  2  0
 21 23  1  0
 23 24  1  0
 24 78  1  0
 24 79  1  0
 24 80  1  0
 25 26  2  0
 25 30  1  0
 26 27  1  0
 26 81  1  0
 27 28  2  0
 27 52  1  0
 28 29  1  0
 28 33  1  0
 29 30  2  0
 29 82  1  0
 30 31  1  0
 31 32  1  0
 32 83  1  0
 32 84  1  0
 32 85  1  0
 33 34  1  0
 33 35  1  0
 34 86  1  0
 34 87  1  0
 34 88  1  0
 35 36  1  0
 35 89  1  0
 35 52  1  0
 36 37  1  0
 36 38  1  0
 36 54  1  0
 37 90  1  0
 38 39  1  0
 38 43  1  0
 38 91  1  0
 39 40  1  0
 40 41  2  0
 40 42  1  0
 42 92  1  0
 42 93  1  0
 42 94  1  0
 43 44  1  0
 43 46  1  0
 43 53  1  0
 44 45  1  0
 44 95  1  0
 44 96  1  0
 45 97  1  0
 45 98  1  0
 45 99  1  0
 46 47  2  0
 46100  1  0
 47 48  1  0
 47101  1  0
 48 49  1  0
 48102  1  0
 48103  1  0
 49 50  1  0
 49 53  1  0
 49113  1  0
 50 51  1  0
 50104  1  0
 50105  1  0
 51 52  1  0
 51106  1  0
 51107  1  0
 52 53  1  0
 53108  1  0
 54 55  2  0
 54 56  1  0
 56 57  1  0
 57109  1  0
 57110  1  0
 57111  1  0
M  CHG  2   7   1  49   1
M  END
> <Mol2_MolInfo_Name>
14460

> <Mol2_MolInfo_Type>
SMALL

> <Mol2_MolInfo_Charge>
USER_CHARGES

> <Mol2_Substructures>
     1 ****        1 GROUP             0       ****    0 ROOT    

> <Name>
14460

$$$$
14460
  SciTegic06232017503D

113121  0  0  0  0            999 V2000
   -4.1224    5.4055   -2.4445 C   0  0
   -2.7510    4.7215   -2.3483 C   0  0
   -2.7904    3.3363   -1.7167 C   0  0
   -2.1725    3.0768   -0.5422 C   0  0
   -2.1214    1.7114    0.1464 C   0  0  1  0  0  0
   -3.1884    0.7657   -0.4673 C   0  0
   -3.1654    0.8328   -2.0132 N   0  3  1  0  0  0
   -3.5733    2.2555   -2.4711 C   0  0
   -1.8166    0.3955   -2.6380 C   0  0
   -1.3684   -0.9289   -2.0415 C   0  0
   -0.7285   -1.1943   -0.8141 C   0  0
   -0.5453   -2.5642   -0.7607 N   0  0
   -1.0585   -3.2085   -1.8574 C   0  0
   -1.1145   -4.5674   -2.1874 C   0  0
   -1.7006   -4.8981   -3.4087 C   0  0
   -2.2122   -3.9242   -4.2612 C   0  0
   -2.1602   -2.5735   -3.9216 C   0  0
   -1.5770   -2.1931   -2.6995 C   0  0
   -0.2284   -0.2975    0.3702 C   0  0  1  0  0  0
   -0.6343    1.2186    0.1649 C   0  0
   -0.7794   -0.9163    1.7087 C   0  0
   -0.4099   -2.0315    2.0910 O   0  0
   -1.6358   -0.1290    2.3966 O   0  0
   -2.1874   -0.5577    3.6332 C   0  0
    1.3473   -0.2855    0.4679 C   0  0
    2.1272   -0.7301   -0.6218 C   0  0
    3.5208   -0.6490   -0.6168 C   0  0
    4.1658   -0.0900    0.4816 C   0  0
    3.4324    0.3910    1.5575 C   0  0
    2.0306    0.2927    1.5754 C   0  0
    1.2849    0.7951    2.6302 O   0  0
    1.9264    1.3718    3.7632 C   0  0
    5.5143    0.0431    0.1452 N   0  0
    6.5809    0.3295    1.0983 C   0  0
    5.8295   -1.0012   -0.8424 C   0  0  1  0  0  0
    6.3050   -2.4181   -0.2867 C   0  0  1  0  0  0
    5.5698   -2.7614    0.8845 O   0  0
    6.0930   -3.5743   -1.3296 C   0  0  2  0  0  0
    7.0758   -3.5032   -2.3860 O   0  0
    7.9355   -4.5158   -2.6604 C   0  0
    7.9960   -5.6012   -2.0830 O   0  0
    8.8718   -4.1758   -3.8119 C   0  0
    4.6384   -3.6713   -1.9321 C   0  0  2  0  0  0
    3.6234   -4.1878   -0.8597 C   0  0
    2.2267   -4.5933   -1.3667 C   0  0
    4.6295   -4.7229   -3.0626 C   0  0
    4.6002   -4.4422   -4.3798 C   0  0
    4.5878   -3.0315   -4.9455 C   0  0
    5.0331   -2.0449   -3.8431 N   0  3  1  0  0  0
    4.8538   -0.5592   -4.1660 C   0  0
    4.5302    0.0827   -2.8173 C   0  0
    4.5304   -0.9979   -1.7013 C   0  0  2  0  0  0
    4.2399   -2.2779   -2.5394 C   0  0  2  0  0  0
    7.8090   -2.3985    0.1597 C   0  0
    8.1974   -2.9164    1.2130 O   0  0
    8.6212   -1.7617   -0.7199 O   0  0
   10.0166   -1.6588   -0.4775 C   0  0
   -4.0308    6.3980   -2.8866 H   0  0
   -4.5741    5.5244   -1.4590 H   0  0
   -4.8134    4.8334   -3.0643 H   0  0
   -2.3165    4.6317   -3.3448 H   0  0
   -2.0745    5.3697   -1.7884 H   0  0
   -1.6439    3.8902   -0.0649 H   0  0
   -2.4308    1.8845    1.1772 H   0  0
   -3.1099   -0.2745   -0.1553 H   0  0
   -4.1953    1.0873   -0.1941 H   0  0
   -4.6334    2.3379   -2.2267 H   0  0
   -3.4494    2.3006   -3.5542 H   0  0
   -2.0398    0.3208   -3.7028 H   0  0
   -1.1136    1.2159   -2.5236 H   0  0
   -0.1011   -3.0010    0.0347 H   0  0
   -0.7219   -5.3332   -1.5344 H   0  0
   -1.7602   -5.9365   -3.7011 H   0  0
   -2.6587   -4.2210   -5.1990 H   0  0
   -2.5691   -1.8350   -4.5950 H   0  0
   -0.1159    1.5663   -0.7277 H   0  0
   -0.1609    1.8210    0.9405 H   0  0
   -2.8569    0.2078    4.0254 H   0  0
   -1.4027   -0.7333    4.3706 H   0  0
   -2.7599   -1.4781    3.5092 H   0  0
    1.6576   -1.1174   -1.5116 H   0  0
    3.9649    0.8679    2.3653 H   0  0
    1.1697    1.6723    4.4878 H   0  0
    2.4930    2.2632    3.4907 H   0  0
    2.5889    0.6585    4.2556 H   0  0
    6.3458    1.2394    1.6512 H   0  0
    7.5316    0.4931    0.5897 H   0  0
    6.6974   -0.4730    1.8265 H   0  0
    6.6259   -0.6171   -1.4813 H   0  0
    5.9095   -3.5923    1.2264 H   0  0
    6.2729   -4.5112   -0.7968 H   0  0
    8.3040   -4.0268   -4.7303 H   0  0
    9.5872   -4.9819   -3.9769 H   0  0
    9.4267   -3.2637   -3.5921 H   0  0
    4.0489   -5.0373   -0.3226 H   0  0
    3.4501   -3.4193   -0.1099 H   0  0
    1.5680   -4.8247   -0.5290 H   0  0
    2.2609   -5.4796   -2.0006 H   0  0
    1.7628   -3.7916   -1.9388 H   0  0
    4.6764   -5.7682   -2.7899 H   0  0
    4.6046   -5.2738   -5.0696 H   0  0
    5.2860   -2.9073   -5.7739 H   0  0
    3.5808   -2.7633   -5.2692 H   0  0
    5.7873   -0.2214   -4.6172 H   0  0
    4.0213   -0.4667   -4.8656 H   0  0
    5.1900    0.9196   -2.5838 H   0  0
    3.5392    0.5332   -2.9012 H   0  0
    3.1978   -2.2691   -2.8672 H   0  0
   10.4946   -1.1188   -1.2946 H   0  0
   10.4750   -2.6464   -0.4090 H   0  0
   10.2148   -1.1181    0.4492 H   0  0
   -3.8723    0.1902   -2.3424 H   0  0
    6.0071   -2.1997   -3.6220 H   0  0
  1  2  1  0
  1 58  1  0
  1 59  1  0
  1 60  1  0
  2  3  1  0
  2 61  1  0
  2 62  1  0
  3  4  2  0
  3  8  1  0
  4  5  1  0
  4 63  1  0
  5  6  1  0
  5 64  1  0
  5 20  1  0
  6  7  1  0
  6 65  1  0
  6 66  1  0
  7  8  1  0
  7  9  1  0
  7112  1  0
  8 67  1  0
  8 68  1  0
  9 10  1  0
  9 69  1  0
  9 70  1  0
 10 11  2  0
 10 18  1  0
 11 12  1  0
 11 19  1  0
 12 13  1  0
 12 71  1  0
 13 14  2  0
 13 18  1  0
 14 15  1  0
 14 72  1  0
 15 16  2  0
 15 73  1  0
 16 17  1  0
 16 74  1  0
 17 18  2  0
 17 75  1  0
 19 20  1  0
 19 21  1  0
 19 25  1  0
 20 76  1  0
 20 77  1  0
 21 22  2  0
 21 23  1  0
 23 24  1  0
 24 78  1  0
 24 79  1  0
 24 80  1  0
 25 26  2  0
 25 30  1  0
 26 27  1  0
 26 81  1  0
 27 28  2  0
 27 52  1  0
 28 29  1  0
 28 33  1  0
 29 30  2  0
 29 82  1  0
 30 31  1  0
 31 32  1  0
 32 83  1  0
 32 84  1  0
 32 85  1  0
 33 34  1  0
 33 35  1  0
 34 86  1  0
 34 87  1  0
 34 88  1  0
 35 36  1  0
 35 89  1  0
 35 52  1  0
 36 37  1  0
 36 38  1  0
 36 54  1  0
 37 90  1  0
 38 39  1  0
 38 43  1  0
 38 91  1  0
 39 40  1  0
 40 41  2  0
 40 42  1  0
 42 92  1  0
 42 93  1  0
 42 94  1  0
 43 44  1  0
 43 46  1  0
 43 53  1  0
 44 45  1  0
 44 95  1  0
 44 96  1  0
 45 97  1  0
 45 98  1  0
 45 99  1  0
 46 47  2  0
 46100  1  0
 47 48  1  0
 47101  1  0
 48 49  1  0
 48102  1  0
 48103  1  0
 49 50  1  0
 49 53  1  0
 49113  1  0
 50 51  1  0
 50104  1  0
 50105  1  0
 51 52  1  0
 51106  1  0
 51107  1  0
 52 53  1  0
 53108  1  0
 54 55  2  0
 54 56  1  0
 56 57  1  0
 57109  1  0
 57110  1  0
 57111  1  0
M  CHG  2   7   1  49   1
M  END
> <Mol2_MolInfo_Name>
14460

> <Mol2_MolInfo_Type>
SMALL

> <Mol2_MolInfo_Charge>
USER_CHARGES

> <Mol2_Substructures>
     1 ****        1 GROUP             0       ****    0 ROOT    

> <Name>
14460

$$$$
14460
  SciTegic06232017503D

113121  0  0  0  0            999 V2000
   -3.9520    0.4424    4.2978 C   0  0
   -3.8105    1.5785    3.2705 C   0  0
   -3.3229    1.1680    1.8836 C   0  0
   -2.3856    1.9010    1.2198 C   0  0
   -1.8993    1.6105   -0.2183 C   0  0  2  0  0  0
   -2.8670    0.6393   -0.9124 C   0  0
   -2.9976   -0.4991    0.1101 N   0  3  1  0  0  0
   -3.9319   -0.1054    1.2629 C   0  0
   -2.9653   -1.9225   -0.4391 C   0  0
   -1.6470   -2.0320   -1.2000 C   0  0
   -0.4190   -1.3414   -1.0100 C   0  0
    0.3721   -1.6808   -2.0915 N   0  0
   -0.2049   -2.6265   -2.8987 C   0  0
    0.2697   -3.2698   -4.0469 C   0  0
   -0.5833   -4.1930   -4.6516 C   0  0
   -1.8508   -4.4606   -4.1418 C   0  0
   -2.3177   -3.8117   -2.9997 C   0  0
   -1.4885   -2.8787   -2.3524 C   0  0
    0.1402   -0.2964    0.0325 C   0  0  1  0  0  0
   -0.3920    1.1708   -0.3189 C   0  0
   -0.2197   -0.6075    1.5228 C   0  0
   -0.8442   -1.6161    1.8611 O   0  0
    0.2603    0.3294    2.3814 O   0  0
    0.1015    0.1882    3.7837 C   0  0
    1.7185   -0.3858    0.0090 C   0  0
    2.4974    0.7200   -0.3844 C   0  0
    3.8837    0.6386   -0.4965 C   0  0
    4.5278   -0.5556   -0.1901 C   0  0
    3.7999   -1.6512    0.2571 C   0  0
    2.3966   -1.5970    0.3214 C   0  0
    1.6337   -2.7001    0.6677 O   0  0
    2.2586   -3.9435    0.9668 C   0  0
    5.9007   -0.3165   -0.2883 N   0  0
    6.9204   -1.3579   -0.3426 C   0  0
    6.0806    0.7674   -1.2707 C   0  0  1  0  0  0
    6.1809    0.3614   -2.8106 C   0  0  1  0  0  0
    5.2747   -0.6974   -3.1071 O   0  0
    5.8238    1.5533   -3.7750 C   0  0  2  0  0  0
    6.8980    2.5183   -3.8187 O   0  0
    7.5334    2.8631   -4.9667 C   0  0
    7.2933    2.4324   -6.0944 O   0  0
    8.6308    3.8909   -4.7266 C   0  0
    4.4495    2.2723   -3.4756 C   0  0  2  0  0  0
    3.2368    1.3617   -3.8683 C   0  0
    1.8356    2.0099   -3.8407 C   0  0
    4.3295    3.5301   -4.3619 C   0  0
    4.5045    4.7964   -3.9361 C   0  0
    4.8643    5.1700   -2.5067 C   0  0
    5.3861    3.9146   -1.7722 N   0  3  1  0  0  0
    5.5490    4.0468   -0.2543 C   0  0
    5.2068    2.6571    0.2859 C   0  0
    4.8946    1.6996   -0.8949 C   0  0  2  0  0  0
    4.4289    2.7209   -1.9715 C   0  0  2  0  0  0
    7.6018   -0.1918   -3.1803 C   0  0
    7.7649   -1.2154   -3.8541 O   0  0
    8.6146    0.5566   -2.6768 O   0  0
    9.9685    0.2099   -2.9281 C   0  0
   -4.1806    0.8424    5.2860 H   0  0
   -3.0400   -0.1462    4.3837 H   0  0
   -4.7617   -0.2379    4.0323 H   0  0
   -4.7812    2.0606    3.1486 H   0  0
   -3.1476    2.3427    3.6801 H   0  0
   -1.9843    2.7742    1.7142 H   0  0
   -1.9804    2.5607   -0.7485 H   0  0
   -3.8637    1.0619   -1.0539 H   0  0
   -2.5097    0.2784   -1.8769 H   0  0
   -3.9261   -0.9551    1.9458 H   0  0
   -4.9301    0.0389    0.8473 H   0  0
   -3.0329   -2.5873    0.4226 H   0  0
   -3.8648   -2.0062   -1.0507 H   0  0
    1.2951   -1.2875   -2.2056 H   0  0
    1.2498   -3.0669   -4.4538 H   0  0
   -0.2536   -4.7123   -5.5398 H   0  0
   -2.4827   -5.1809   -4.6411 H   0  0
   -3.3058   -4.0288   -2.6214 H   0  0
   -0.0928    1.3718   -1.3489 H   0  0
    0.1530    1.9053    0.2762 H   0  0
    0.6495    0.9783    4.2969 H   0  0
    0.4864   -0.7715    4.1320 H   0  0
   -0.9467    0.2671    4.0651 H   0  0
    2.0443    1.6624   -0.6382 H   0  0
    4.3333   -2.5502    0.5243 H   0  0
    1.4917   -4.6812    1.2021 H   0  0
    2.9147   -3.8626    1.8347 H   0  0
    2.8281   -4.3208    0.1160 H   0  0
    6.8367   -1.9999    0.5346 H   0  0
    7.9232   -0.9289   -0.3382 H   0  0
    6.8068   -1.9915   -1.2222 H   0  0
    6.9961    1.3003   -1.0099 H   0  0
    5.4621   -1.4328   -2.5188 H   0  0
    5.7429    1.1285   -4.7785 H   0  0
    8.2087    4.8035   -4.3057 H   0  0
    9.1336    4.1432   -5.6607 H   0  0
    9.3725    3.4959   -4.0321 H   0  0
    3.3981    0.9436   -4.8635 H   0  0
    3.1743    0.5068   -3.2002 H   0  0
    1.0662    1.2656   -4.0488 H   0  0
    1.7330    2.7937   -4.5912 H   0  0
    1.6067    2.4462   -2.8696 H   0  0
    4.1149    3.3964   -5.4132 H   0  0
    4.3980    5.5879   -4.6637 H   0  0
    5.6620    5.9119   -2.4566 H   0  0
    3.9827    5.5411   -1.9817 H   0  0
    6.5786    4.3593   -0.0775 H   0  0
    4.8404    4.7991    0.0959 H   0  0
    5.9836    2.2636    0.9432 H   0  0
    4.3291    2.7566    0.9277 H   0  0
    3.4545    3.1286   -1.6931 H   0  0
   10.6300    0.9305   -2.4472 H   0  0
   10.1815    0.2155   -3.9981 H   0  0
   10.1997   -0.7805   -2.5335 H   0  0
   -2.0916   -0.4830    0.5574 H   0  0
    6.2783    3.6395   -2.1593 H   0  0
  1  2  1  0
  1 58  1  0
  1 59  1  0
  1 60  1  0
  2  3  1  0
  2 61  1  0
  2 62  1  0
  3  4  2  0
  3  8  1  0
  4  5  1  0
  4 63  1  0
  5  6  1  0
  5 64  1  0
  5 20  1  0
  6  7  1  0
  6 65  1  0
  6 66  1  0
  7  8  1  0
  7  9  1  0
  7112  1  0
  8 67  1  0
  8 68  1  0
  9 10  1  0
  9 69  1  0
  9 70  1  0
 10 11  2  0
 10 18  1  0
 11 12  1  0
 11 19  1  0
 12 13  1  0
 12 71  1  0
 13 14  2  0
 13 18  1  0
 14 15  1  0
 14 72  1  0
 15 16  2  0
 15 73  1  0
 16 17  1  0
 16 74  1  0
 17 18  2  0
 17 75  1  0
 19 20  1  0
 19 21  1  0
 19 25  1  0
 20 76  1  0
 20 77  1  0
 21 22  2  0
 21 23  1  0
 23 24  1  0
 24 78  1  0
 24 79  1  0
 24 80  1  0
 25 26  2  0
 25 30  1  0
 26 27  1  0
 26 81  1  0
 27 28  2  0
 27 52  1  0
 28 29  1  0
 28 33  1  0
 29 30  2  0
 29 82  1  0
 30 31  1  0
 31 32  1  0
 32 83  1  0
 32 84  1  0
 32 85  1  0
 33 34  1  0
 33 35  1  0
 34 86  1  0
 34 87  1  0
 34 88  1  0
 35 36  1  0
 35 89  1  0
 35 52  1  0
 36 37  1  0
 36 38  1  0
 36 54  1  0
 37 90  1  0
 38 39  1  0
 38 43  1  0
 38 91  1  0
 39 40  1  0
 40 41  2  0
 40 42  1  0
 42 92  1  0
 42 93  1  0
 42 94  1  0
 43 44  1  0
 43 46  1  0
 43 53  1  0
 44 45  1  0
 44 95  1  0
 44 96  1  0
 45 97  1  0
 45 98  1  0
 45 99  1  0
 46 47  2  0
 46100  1  0
 47 48  1  0
 47101  1  0
 48 49  1  0
 48102  1  0
 48103  1  0
 49 50  1  0
 49 53  1  0
 49113  1  0
 50 51  1  0
 50104  1  0
 50105  1  0
 51 52  1  0
 51106  1  0
 51107  1  0
 52 53  1  0
 53108  1  0
 54 55  2  0
 54 56  1  0
 56 57  1  0
 57109  1  0
 57110  1  0
 57111  1  0
M  CHG  2   7   1  49   1
M  END
> <Mol2_MolInfo_Name>
14460

> <Mol2_MolInfo_Type>
SMALL

> <Mol2_MolInfo_Charge>
USER_CHARGES

> <Mol2_Substructures>
     1 ****        1 GROUP             0       ****    0 ROOT    

> <Name>
14460

$$$$
14460
  SciTegic06232017503D

113121  0  0  0  0            999 V2000
    3.9628    4.4006   -2.9306 C   0  0
    3.4806    3.5635   -1.7379 C   0  0
    2.1686    2.8335   -1.9854 C   0  0
    1.0546    3.0974   -1.2500 C   0  0
   -0.2985    2.3801   -1.4291 C   0  0  1  0  0  0
   -0.3371    1.6692   -2.7866 C   0  0
    0.9604    0.8494   -2.7767 N   0  3  2  0  0  0
    2.1776    1.7397   -3.0684 C   0  0
    0.8323   -0.5524   -3.3582 C   0  0
   -0.1452   -1.2783   -2.4331 C   0  0
   -0.4726   -1.0321   -1.0674 C   0  0
   -1.4886   -1.9240   -0.7684 N   0  0
   -1.7773   -2.7778   -1.8020 C   0  0
   -2.6893   -3.8347   -1.8961 C   0  0
   -2.7414   -4.5182   -3.1109 C   0  0
   -1.9281   -4.1653   -4.1842 C   0  0
   -1.0250   -3.1084   -4.0835 C   0  0
   -0.9348   -2.3955   -2.8749 C   0  0
    0.0337    0.0075    0.0246 C   0  0  1  0  0  0
   -0.6746    1.4255   -0.2399 C   0  0
   -0.3380   -0.5404    1.4577 C   0  0
    0.0691   -1.6447    1.8363 O   0  0
   -1.1324    0.2684    2.2016 O   0  0
   -1.5322   -0.1076    3.5113 C   0  0
    1.6011    0.1002    0.1446 C   0  0
    2.4084   -0.8671   -0.4833 C   0  0
    3.7950   -0.8615   -0.3726 C   0  0
    4.4122    0.1148    0.3991 C   0  0
    3.6548    1.0977    1.0249 C   0  0
    2.2500    1.0793    0.9446 C   0  0
    1.4687    1.9868    1.6368 O   0  0
    2.0726    2.9870    2.4500 C   0  0
    5.7894   -0.0620    0.2503 N   0  0
    6.7970    0.5544    1.1057 C   0  0
    6.0184   -1.4893   -0.0468 C   0  0  1  0  0  0
    6.1701   -2.4907    1.1868 C   0  0  1  0  0  0
    5.2928   -2.1126    2.2435 O   0  0
    5.8474   -3.9802    0.7957 C   0  0  2  0  0  0
    6.9269   -4.5438    0.0169 O   0  0
    7.6431   -5.6219    0.4221 C   0  0
    7.4903   -6.2526    1.4682 O   0  0
    8.7154   -6.0069   -0.5877 C   0  0
    4.4685   -4.2059    0.0645 C   0  0  2  0  0  0
    3.2697   -4.0217    1.0545 C   0  0
    1.8682   -4.4116    0.5350 C   0  0
    4.3863   -5.6686   -0.4222 C   0  0
    4.5410   -6.0688   -1.6998 C   0  0
    4.8390   -5.1251   -2.8541 C   0  0
    5.3472   -3.7816   -2.2850 N   0  3  1  0  0  0
    5.4707   -2.6306   -3.2881 C   0  0
    5.1094   -1.3840   -2.4794 C   0  0
    4.8277   -1.7773   -1.0046 C   0  0  2  0  0  0
    4.3985   -3.2606   -1.1852 C   0  0  2  0  0  0
    7.6097   -2.4532    1.8036 C   0  0
    8.5798   -2.0453    1.1589 O   0  0
    7.6833   -2.9520    3.0663 O   0  0
    8.9275   -3.0273    3.7463 C   0  0
    4.8957    4.9128   -2.6932 H   0  0
    3.2291    5.1601   -3.2034 H   0  0
    4.1440    3.7791   -3.8082 H   0  0
    4.2397    2.8227   -1.4827 H   0  0
    3.3905    4.2091   -0.8626 H   0  0
    1.1213    3.8573   -0.4843 H   0  0
   -1.0556    3.1651   -1.4624 H   0  0
   -1.2105    1.0293   -2.9172 H   0  0
   -0.2824    2.3581   -3.6320 H   0  0
    2.0693    2.1251   -4.0831 H   0  0
    3.0561    1.0989   -2.9984 H   0  0
    0.4860   -0.4053   -4.3825 H   0  0
    1.8350   -0.9792   -3.3649 H   0  0
   -1.9179   -1.9373    0.1458 H   0  0
   -3.3269   -4.1167   -1.0709 H   0  0
   -3.4315   -5.3418   -3.2230 H   0  0
   -2.0007   -4.7185   -5.1095 H   0  0
   -0.4047   -2.8464   -4.9278 H   0  0
   -0.6543    2.0585    0.6455 H   0  0
   -1.7401    1.2156   -0.3540 H   0  0
   -2.1771    0.6617    3.9357 H   0  0
   -0.6667   -0.2245    4.1651 H   0  0
   -2.0874   -1.0468    3.4984 H   0  0
    1.9663   -1.6621   -1.0557 H   0  0
    4.1685    1.8574    1.5930 H   0  0
    1.2922    3.5958    2.9061 H   0  0
    2.7060    3.6522    1.8613 H   0  0
    2.6607    2.5464    3.2563 H   0  0
    6.6281    1.6303    1.1585 H   0  0
    7.7980    0.4047    0.7008 H   0  0
    6.7607    0.1684    2.1240 H   0  0
    6.9315   -1.5651   -0.6401 H   0  0
    5.4546   -1.1914    2.4597 H   0  0
    5.7995   -4.5478    1.7281 H   0  0
    8.2555   -6.3202   -1.5249 H   0  0
    9.3234   -6.8293   -0.2098 H   0  0
    9.3703   -5.1583   -0.7865 H   0  0
    3.4606   -4.5853    1.9696 H   0  0
    3.1915   -2.9830    1.3653 H   0  0
    1.1111   -4.2081    1.2926 H   0  0
    1.7999   -5.4727    0.2959 H   0  0
    1.5896   -3.8498   -0.3555 H   0  0
    4.2163   -6.4430    0.3130 H   0  0
    4.4650   -7.1267   -1.9060 H   0  0
    5.6244   -5.5014   -3.5101 H   0  0
    3.9329   -4.9393   -3.4330 H   0  0
    6.4971   -2.6475   -3.6556 H   0  0
    4.7563   -2.8078   -4.0938 H   0  0
    5.8626   -0.5991   -2.5626 H   0  0
    4.2142   -0.9524   -2.9274 H   0  0
    3.4151   -3.3030   -1.6590 H   0  0
    8.7772   -3.4323    4.7471 H   0  0
    9.3828   -2.0408    3.8438 H   0  0
    9.6228   -3.6802    3.2168 H   0  0
    1.0769    0.6276   -1.7972 H   0  0
    6.2497   -3.9145   -1.8497 H   0  0
  1  2  1  0
  1 58  1  0
  1 59  1  0
  1 60  1  0
  2  3  1  0
  2 61  1  0
  2 62  1  0
  3  4  2  0
  3  8  1  0
  4  5  1  0
  4 63  1  0
  5  6  1  0
  5 64  1  0
  5 20  1  0
  6  7  1  0
  6 65  1  0
  6 66  1  0
  7  8  1  0
  7  9  1  0
  7112  1  0
  8 67  1  0
  8 68  1  0
  9 10  1  0
  9 69  1  0
  9 70  1  0
 10 11  2  0
 10 18  1  0
 11 12  1  0
 11 19  1  0
 12 13  1  0
 12 71  1  0
 13 14  2  0
 13 18  1  0
 14 15  1  0
 14 72  1  0
 15 16  2  0
 15 73  1  0
 16 17  1  0
 16 74  1  0
 17 18  2  0
 17 75  1  0
 19 20  1  0
 19 21  1  0
 19 25  1  0
 20 76  1  0
 20 77  1  0
 21 22  2  0
 21 23  1  0
 23 24  1  0
 24 78  1  0
 24 79  1  0
 24 80  1  0
 25 26  2  0
 25 30  1  0
 26 27  1  0
 26 81  1  0
 27 28  2  0
 27 52  1  0
 28 29  1  0
 28 33  1  0
 29 30  2  0
 29 82  1  0
 30 31  1  0
 31 32  1  0
 32 83  1  0
 32 84  1  0
 32 85  1  0
 33 34  1  0
 33 35  1  0
 34 86  1  0
 34 87  1  0
 34 88  1  0
 35 36  1  0
 35 89  1  0
 35 52  1  0
 36 37  1  0
 36 38  1  0
 36 54  1  0
 37 90  1  0
 38 39  1  0
 38 43  1  0
 38 91  1  0
 39 40  1  0
 40 41  2  0
 40 42  1  0
 42 92  1  0
 42 93  1  0
 42 94  1  0
 43 44  1  0
 43 46  1  0
 43 53  1  0
 44 45  1  0
 44 95  1  0
 44 96  1  0
 45 97  1  0
 45 98  1  0
 45 99  1  0
 46 47  2  0
 46100  1  0
 47 48  1  0
 47101  1  0
 48 49  1  0
 48102  1  0
 48103  1  0
 49 50  1  0
 49 53  1  0
 49113  1  0
 50 51  1  0
 50104  1  0
 50105  1  0
 51 52  1  0
 51106  1  0
 51107  1  0
 52 53  1  0
 53108  1  0
 54 55  2  0
 54 56  1  0
 56 57  1  0
 57109  1  0
 57110  1  0
 57111  1  0
M  CHG  2   7   1  49   1
M  END
> <Mol2_MolInfo_Name>
14460

> <Mol2_MolInfo_Type>
SMALL

> <Mol2_MolInfo_Charge>
USER_CHARGES

> <Mol2_Substructures>
     1 ****        1 GROUP             0       ****    0 ROOT    

> <Name>
14460

$$$$
14460
  SciTegic06232017503D

113121  0  0  0  0            999 V2000
   -3.9253    4.8498   -2.3209 C   0  0
   -2.4233    5.1685   -2.3233 C   0  0
   -1.5310    3.9363   -2.2711 C   0  0
   -0.8030    3.6379   -1.1705 C   0  0
    0.0992    2.4122   -1.0168 C   0  0  2  0  0  0
    0.3948    1.8016   -2.4161 C   0  0
   -0.8925    1.6738   -3.2593 N   0  3  2  0  0  0
   -1.4483    3.0910   -3.5484 C   0  0
   -1.9734    0.7516   -2.6399 C   0  0
   -1.3930   -0.5758   -2.1552 C   0  0
   -0.6269   -0.8758   -1.0069 C   0  0
   -0.4232   -2.2431   -1.0117 N   0  0
   -0.9893   -2.8522   -2.1021 C   0  0
   -1.0219   -4.1957   -2.4930 C   0  0
   -1.6832   -4.4921   -3.6842 C   0  0
   -2.2892   -3.5008   -4.4497 C   0  0
   -2.2601   -2.1661   -4.0497 C   0  0
   -1.6022   -1.8181   -2.8559 C   0  0
   -0.0304   -0.0222    0.1594 C   0  0  1  0  0  0
   -0.5300    1.4686    0.0566 C   0  0
   -0.5848   -0.6571    1.4854 C   0  0
    0.0983   -1.4079    2.1900 O   0  0
   -1.8739   -0.3255    1.7467 O   0  0
   -2.5295   -0.8183    2.9058 C   0  0
    1.5456   -0.0211    0.2279 C   0  0
    2.3080   -0.6349   -0.7865 C   0  0
    3.7019   -0.5895   -0.7912 C   0  0
    4.3665    0.0806    0.2307 C   0  0
    3.6490    0.7164    1.2357 C   0  0
    2.2447    0.6598    1.2616 C   0  0
    1.5092    1.2762    2.2600 O   0  0
    2.1654    1.9503    3.3288 C   0  0
    5.7208    0.1109   -0.1091 N   0  0
    6.7975    0.4559    0.8124 C   0  0
    5.9893   -1.0619   -0.9578 C   0  0  1  0  0  0
    6.3905   -2.4236   -0.2307 C   0  0  1  0  0  0
    5.6316   -2.5873    0.9640 O   0  0
    6.1284   -3.6847   -1.1317 C   0  0  2  0  0  0
    7.1177   -3.7784   -2.1797 O   0  0
    7.9166   -4.8613   -2.3443 C   0  0
    7.9090   -5.8874   -1.6643 O   0  0
    8.8775   -4.6889   -3.5125 C   0  0
    4.6737   -3.7855   -1.7345 C   0  0  2  0  0  0
    3.6283   -4.1247   -0.6208 C   0  0
    2.2157   -4.5187   -1.0945 C   0  0
    4.6191   -4.9607   -2.7345 C   0  0
    4.6103   -4.8353   -4.0761 C   0  0
    4.6713   -3.5019   -4.8033 C   0  0
    5.1567   -2.4145   -3.8193 N   0  3  1  0  0  0
    5.0503   -0.9698   -4.3152 C   0  0
    4.7437   -0.1608   -3.0555 C   0  0
    4.6952   -1.1028   -1.8213 C   0  0  2  0  0  0
    4.3468   -2.4565   -2.5061 C   0  0  2  0  0  0
    7.8913   -2.4252    0.2276 C   0  0
    8.2473   -2.8329    1.3390 O   0  0
    8.7392   -1.9393   -0.7125 O   0  0
   10.1375   -1.8828   -0.4718 C   0  0
   -4.5153    5.7666   -2.3368 H   0  0
   -4.2091    4.2910   -1.4284 H   0  0
   -4.2147    4.2604   -3.1910 H   0  0
   -2.1696    5.7417   -3.2159 H   0  0
   -2.2028    5.8238   -1.4788 H   0  0
   -0.8972    4.2926   -0.3155 H   0  0
    1.0582    2.7556   -0.6259 H   0  0
    1.0442    2.4587   -2.9973 H   0  0
    0.8771    0.8304   -2.4131 H   0  0
   -2.4024    2.9686   -4.0628 H   0  0
   -0.7295    3.5426   -4.2335 H   0  0
   -2.5072    1.3236   -1.8857 H   0  0
   -2.6736    0.6168   -3.4647 H   0  0
    0.0927   -2.6990   -0.2726 H   0  0
   -0.5594   -4.9759   -1.9065 H   0  0
   -1.7290   -5.5177   -4.0207 H   0  0
   -2.7938   -3.7717   -5.3657 H   0  0
   -2.7426   -1.4152   -4.6573 H   0  0
   -0.4005    1.9745    1.0137 H   0  0
   -1.6141    1.4672   -0.0338 H   0  0
   -3.5513   -0.4400    2.9415 H   0  0
   -2.0159   -0.4958    3.8127 H   0  0
   -2.5711   -1.9083    2.8988 H   0  0
    1.8257   -1.1294   -1.6134 H   0  0
    4.1957    1.2651    1.9864 H   0  0
    1.4170    2.3393    4.0190 H   0  0
    2.7517    2.7967    2.9682 H   0  0
    2.8127    1.2756    3.8913 H   0  0
    6.6098    1.4377    1.2476 H   0  0
    7.7575    0.5051    0.2976 H   0  0
    6.8685   -0.2564    1.6342 H   0  0
    6.8059   -0.7977   -1.6309 H   0  0
    5.9214   -3.3907    1.4032 H   0  0
    6.2654   -4.5596   -0.4918 H   0  0
    8.3269   -4.4700   -4.4274 H   0  0
    9.4600   -5.5968   -3.6703 H   0  0
    9.5662   -3.8675   -3.3147 H   0  0
    4.0086   -4.9257    0.0153 H   0  0
    3.4890   -3.2677    0.0341 H   0  0
    1.5350   -4.6038   -0.2470 H   0  0
    2.2092   -5.4800   -1.6086 H   0  0
    1.8032   -3.7755   -1.7742 H   0  0
    4.6119   -5.9674   -2.3404 H   0  0
    4.5760   -5.7412   -4.6640 H   0  0
    5.3811   -3.5095   -5.6312 H   0  0
    3.6811   -3.2256   -5.1688 H   0  0
    6.0044   -0.7310   -4.7860 H   0  0
    4.2310   -0.9207   -5.0342 H   0  0
    5.4366    0.6702   -2.9147 H   0  0
    3.7724    0.3162   -3.2014 H   0  0
    3.3085   -2.4370   -2.8452 H   0  0
   10.6451   -1.4682   -1.3426 H   0  0
   10.5427   -2.8784   -0.2849 H   0  0
   10.3626   -1.2492    0.3874 H   0  0
   -0.6210    1.2653   -4.1425 H   0  0
    6.1208   -2.5876   -3.5699 H   0  0
  1  2  1  0
  1 58  1  0
  1 59  1  0
  1 60  1  0
  2  3  1  0
  2 61  1  0
  2 62  1  0
  3  4  2  0
  3  8  1  0
  4  5  1  0
  4 63  1  0
  5  6  1  0
  5 64  1  0
  5 20  1  0
  6  7  1  0
  6 65  1  0
  6 66  1  0
  7  8  1  0
  7  9  1  0
  7112  1  0
  8 67  1  0
  8 68  1  0
  9 10  1  0
  9 69  1  0
  9 70  1  0
 10 11  2  0
 10 18  1  0
 11 12  1  0
 11 19  1  0
 12 13  1  0
 12 71  1  0
 13 14  2  0
 13 18  1  0
 14 15  1  0
 14 72  1  0
 15 16  2  0
 15 73  1  0
 16 17  1  0
 16 74  1  0
 17 18  2  0
 17 75  1  0
 19 20  1  0
 19 21  1  0
 19 25  1  0
 20 76  1  0
 20 77  1  0
 21 22  2  0
 21 23  1  0
 23 24  1  0
 24 78  1  0
 24 79  1  0
 24 80  1  0
 25 26  2  0
 25 30  1  0
 26 27  1  0
 26 81  1  0
 27 28  2  0
 27 52  1  0
 28 29  1  0
 28 33  1  0
 29 30  2  0
 29 82  1  0
 30 31  1  0
 31 32  1  0
 32 83  1  0
 32 84  1  0
 32 85  1  0
 33 34  1  0
 33 35  1  0
 34 86  1  0
 34 87  1  0
 34 88  1  0
 35 36  1  0
 35 89  1  0
 35 52  1  0
 36 37  1  0
 36 38  1  0
 36 54  1  0
 37 90  1  0
 38 39  1  0
 38 43  1  0
 38 91  1  0
 39 40  1  0
 40 41  2  0
 40 42  1  0
 42 92  1  0
 42 93  1  0
 42 94  1  0
 43 44  1  0
 43 46  1  0
 43 53  1  0
 44 45  1  0
 44 95  1  0
 44 96  1  0
 45 97  1  0
 45 98  1  0
 45 99  1  0
 46 47  2  0
 46100  1  0
 47 48  1  0
 47101  1  0
 48 49  1  0
 48102  1  0
 48103  1  0
 49 50  1  0
 49 53  1  0
 49113  1  0
 50 51  1  0
 50104  1  0
 50105  1  0
 51 52  1  0
 51106  1  0
 51107  1  0
 52 53  1  0
 53108  1  0
 54 55  2  0
 54 56  1  0
 56 57  1  0
 57109  1  0
 57110  1  0
 57111  1  0
M  CHG  2   7   1  49   1
M  END
> <Mol2_MolInfo_Name>
14460

> <Mol2_MolInfo_Type>
SMALL

> <Mol2_MolInfo_Charge>
USER_CHARGES

> <Mol2_Substructures>
     1 ****        1 GROUP             0       ****    0 ROOT    

> <Name>
14460

$$$$
14460
  SciTegic06232017503D

113121  0  0  0  0            999 V2000
   -2.3807    5.9746    3.5667 C   0  0
   -2.7550    4.9168    2.5184 C   0  0
   -1.7999    3.7320    2.4646 C   0  0
   -1.0455    3.4820    1.3699 C   0  0
   -0.0961    2.2945    1.2058 C   0  0  1  0  0  0
    0.2037    1.6748    2.5996 C   0  0
   -1.0916    1.4688    3.4160 N   0  3  1  0  0  0
   -1.7305    2.8483    3.7167 C   0  0
   -2.1050    0.4929    2.7658 C   0  0
   -1.4245   -0.7845    2.2810 C   0  0
   -0.6492   -1.0182    1.1257 C   0  0
   -0.3147   -2.3600    1.1376 N   0  0
   -0.7864   -3.0072    2.2494 C   0  0
   -0.6603   -4.3382    2.6620 C   0  0
   -1.2680   -4.6855    3.8683 C   0  0
   -1.9684   -3.7539    4.6289 C   0  0
   -2.0908   -2.4300    4.2099 C   0  0
   -1.4946   -2.0325    2.9996 C   0  0
   -0.1371   -0.1142   -0.0431 C   0  0  2  0  0  0
   -0.6783    1.3562    0.1015 C   0  0
   -0.7185   -0.7402   -1.3611 C   0  0
   -1.7021   -0.2635   -1.9356 O   0  0
   -0.0334   -1.8320   -1.7916 O   0  0
   -0.4172   -2.5058   -2.9811 C   0  0
    1.4327   -0.0512   -0.1646 C   0  0
    2.2398   -0.5844    0.8581 C   0  0
    3.6279   -0.5144    0.8142 C   0  0
    4.2527    0.1138   -0.2645 C   0  0
    3.4881    0.6207   -1.3099 C   0  0
    2.0822    0.5724   -1.2642 C   0  0
    1.2991    1.1204   -2.2661 O   0  0
    1.9016    1.7457   -3.3943 C   0  0
    5.6395    0.0002   -0.0837 N   0  0
    6.5634    0.9938   -0.6248 C   0  0
    5.7874   -0.1309    1.3696 C   0  0  2  0  0  0
    7.1315   -0.3430    2.1711 C   0  0  1  0  0  0
    7.7615    0.9319    2.2382 O   0  0
    6.8644   -0.7845    3.6824 C   0  0  2  0  0  0
    7.1460   -2.1827    3.9019 O   0  0
    8.0238   -2.6217    4.8372 C   0  0
    8.6681   -1.9257    5.6222 O   0  0
    8.1501   -4.1389    4.8357 C   0  0
    5.4241   -0.4273    4.2514 C   0  0  2  0  0  0
    5.2194    1.1189    4.4278 C   0  0
    6.2816    1.8912    5.2400 C   0  0
    5.1992   -0.9931    5.6827 C   0  0
    4.3462   -1.9917    6.0094 C   0  0
    3.5352   -2.7850    4.9924 C   0  0
    4.2759   -2.5915    3.6640 N   0  3  1  0  0  0
    3.8835   -3.3316    2.3962 C   0  0
    4.8085   -2.6089    1.4257 C   0  0
    4.6617   -1.1012    1.7599 C   0  0  2  0  0  0
    4.3533   -1.0910    3.2927 C   0  0  2  0  0  0
    8.1666   -1.2595    1.4433 C   0  0
    7.8674   -1.9358    0.4558 O   0  0
    9.3950   -1.2431    2.0224 O   0  0
   10.4554   -2.0285    1.4986 C   0  0
   -3.0847    6.8070    3.5454 H   0  0
   -1.3852    6.3797    3.3808 H   0  0
   -2.3918    5.5616    4.5758 H   0  0
   -3.7579    4.5388    2.7212 H   0  0
   -2.8121    5.3968    1.5399 H   0  0
   -1.1469    4.1526    0.5282 H   0  0
    0.8554    2.6791    0.8353 H   0  0
    0.7393    0.7317    2.5874 H   0  0
    0.8057    2.3549    3.2053 H   0  0
   -1.0641    3.3106    4.4462 H   0  0
   -2.7013    2.6689    4.1813 H   0  0
   -2.8151    0.3021    3.5712 H   0  0
   -2.6514    1.0434    2.0048 H   0  0
    0.2328   -2.7696    0.3941 H   0  0
   -0.1214   -5.0708    2.0792 H   0  0
   -1.1965   -5.7043    4.2208 H   0  0
   -2.4264   -4.0629    5.5574 H   0  0
   -2.6402   -1.7245    4.8151 H   0  0
   -1.7644    1.3197    0.1634 H   0  0
   -0.5312    1.8922   -0.8377 H   0  0
    0.2502   -3.3484   -3.1609 H   0  0
   -0.3620   -1.8393   -3.8430 H   0  0
   -1.4359   -2.8889   -2.9037 H   0  0
    1.8021   -1.0673    1.7154 H   0  0
    3.9983    1.0703   -2.1474 H   0  0
    1.1195    2.1043   -4.0634 H   0  0
    2.5203    1.0462   -3.9581 H   0  0
    2.5041    2.6067   -3.1011 H   0  0
    6.3990    1.1101   -1.6963 H   0  0
    7.6024    0.6936   -0.4930 H   0  0
    6.4186    1.9690   -0.1576 H   0  0
    5.4670    0.8572    1.6995 H   0  0
    7.8895    1.2574    1.3440 H   0  0
    7.5881   -0.2472    4.2970 H   0  0
    8.3640   -4.5011    3.8301 H   0  0
    7.2232   -4.5955    5.1820 H   0  0
    8.9585   -4.4578    5.4941 H   0  0
    5.1230    1.6306    3.4774 H   0  0
    4.2498    1.2920    4.8991 H   0  0
    6.0047    2.9428    5.3197 H   0  0
    7.2621    1.8606    4.7669 H   0  0
    6.3884    1.5153    6.2564 H   0  0
    5.7586   -0.5681    6.5028 H   0  0
    4.2817   -2.2743    7.0503 H   0  0
    3.5517   -3.8554    5.2005 H   0  0
    2.5061   -2.4360    4.8945 H   0  0
    4.0940   -4.3907    2.5483 H   0  0
    2.8130   -3.1809    2.2493 H   0  0
    5.8201   -2.9539    1.6343 H   0  0
    4.6166   -2.8526    0.3791 H   0  0
    3.3507   -0.6969    3.4731 H   0  0
   11.3483   -1.8966    2.1094 H   0  0
   10.6947   -1.7305    0.4767 H   0  0
   10.1962   -3.0881    1.5001 H   0  0
   -0.8138    1.0641    4.2988 H   0  0
    5.2257   -2.8912    3.8373 H   0  0
  1  2  1  0
  1 58  1  0
  1 59  1  0
  1 60  1  0
  2  3  1  0
  2 61  1  0
  2 62  1  0
  3  4  2  0
  3  8  1  0
  4  5  1  0
  4 63  1  0
  5  6  1  0
  5 64  1  0
  5 20  1  0
  6  7  1  0
  6 65  1  0
  6 66  1  0
  7  8  1  0
  7  9  1  0
  7112  1  0
  8 67  1  0
  8 68  1  0
  9 10  1  0
  9 69  1  0
  9 70  1  0
 10 11  2  0
 10 18  1  0
 11 12  1  0
 11 19  1  0
 12 13  1  0
 12 71  1  0
 13 14  2  0
 13 18  1  0
 14 15  1  0
 14 72  1  0
 15 16  2  0
 15 73  1  0
 16 17  1  0
 16 74  1  0
 17 18  2  0
 17 75  1  0
 19 20  1  0
 19 21  1  0
 19 25  1  0
 20 76  1  0
 20 77  1  0
 21 22  2  0
 21 23  1  0
 23 24  1  0
 24 78  1  0
 24 79  1  0
 24 80  1  0
 25 26  2  0
 25 30  1  0
 26 27  1  0
 26 81  1  0
 27 28  2  0
 27 52  1  0
 28 29  1  0
 28 33  1  0
 29 30  2  0
 29 82  1  0
 30 31  1  0
 31 32  1  0
 32 83  1  0
 32 84  1  0
 32 85  1  0
 33 34  1  0
 33 35  1  0
 34 86  1  0
 34 87  1  0
 34 88  1  0
 35 36  1  0
 35 89  1  0
 35 52  1  0
 36 37  1  0
 36 38  1  0
 36 54  1  0
 37 90  1  0
 38 39  1  0
 38 43  1  0
 38 91  1  0
 39 40  1  0
 40 41  2  0
 40 42  1  0
 42 92  1  0
 42 93  1  0
 42 94  1  0
 43 44  1  0
 43 46  1  0
 43 53  1  0
 44 45  1  0
 44 95  1  0
 44 96  1  0
 45 97  1  0
 45 98  1  0
 45 99  1  0
 46 47  2  0
 46100  1  0
 47 48  1  0
 47101  1  0
 48 49  1  0
 48102  1  0
 48103  1  0
 49 50  1  0
 49 53  1  0
 49113  1  0
 50 51  1  0
 50104  1  0
 50105  1  0
 51 52  1  0
 51106  1  0
 51107  1  0
 52 53  1  0
 53108  1  0
 54 55  2  0
 54 56  1  0
 56 57  1  0
 57109  1  0
 57110  1  0
 57111  1  0
M  CHG  2   7   1  49   1
M  END
> <Mol2_MolInfo_Name>
14460

> <Mol2_MolInfo_Type>
SMALL

> <Mol2_MolInfo_Charge>
USER_CHARGES

> <Mol2_Substructures>
     1 ****        1 GROUP             0       ****    0 ROOT    

> <Name>
14460

$$$$
14460
  SciTegic06232017503D

113121  0  0  0  0            999 V2000
    4.2781    4.2056    2.7902 C   0  0
    3.7216    3.3744    1.6261 C   0  0
    2.3643    2.7458    1.9071 C   0  0
    1.2656    3.0530    1.1650 C   0  0
   -0.1320    2.4364    1.3786 C   0  0  2  0  0  0
   -0.2109    1.7957    2.7694 C   0  0
    1.0260    0.8883    2.7944 N   0  3  1  0  0  0
    2.3092    1.6981    3.0328 C   0  0
    0.8051   -0.4744    3.4372 C   0  0
   -0.2158   -1.1759    2.5441 C   0  0
   -0.5219   -0.9725    1.1682 C   0  0
   -1.5985   -1.8029    0.9058 N   0  0
   -1.9528   -2.5802    1.9785 C   0  0
   -2.9425   -3.5593    2.1198 C   0  0
   -3.0514   -4.1718    3.3682 C   0  0
   -2.2176   -3.8263    4.4280 C   0  0
   -1.2354   -2.8485    4.2793 C   0  0
   -1.0875   -2.2077    3.0365 C   0  0
    0.0489   -0.0138    0.0367 C   0  0  2  0  0  0
   -0.5783    1.4498    0.2391 C   0  0
   -0.3831   -0.5600   -1.3764 C   0  0
   -1.0503    0.1071   -2.1729 O   0  0
    0.0505   -1.8277   -1.6141 O   0  0
   -0.2410   -2.4765   -2.8430 C   0  0
    1.6193   -0.0041   -0.0897 C   0  0
    2.3859   -0.9780    0.5802 C   0  0
    3.7771   -1.0045    0.5023 C   0  0
    4.4384   -0.0551   -0.2793 C   0  0
    3.7082    0.8626   -1.0236 C   0  0
    2.3053    0.9014   -0.9439 C   0  0
    1.5598    1.7909   -1.6969 O   0  0
    2.2004    2.7222   -2.5629 C   0  0
    5.8108   -0.3360   -0.2386 N   0  0
    6.8120    0.7169   -0.3882 C   0  0
    5.9888   -1.0703    1.0158 C   0  0  2  0  0  0
    7.3331   -1.7227    1.5354 C   0  0  1  0  0  0
    8.1201   -0.6590    2.0616 O   0  0
    7.0789   -2.7290    2.7487 C   0  0  2  0  0  0
    7.1879   -4.1111    2.3486 O   0  0
    8.0205   -4.9931    2.9521 C   0  0
    8.7668   -4.7637    3.9038 O   0  0
    7.9436   -6.3754    2.3185 C   0  0
    5.7244   -2.4902    3.5396 C   0  0  2  0  0  0
    5.8370   -1.1530    4.3519 C   0  0
    4.6031   -0.7434    5.1802 C   0  0
    5.4995   -3.5654    4.6383 C   0  0
    4.5411   -4.5206    4.6160 C   0  0
    3.5911   -4.7442    3.4452 C   0  0
    4.2885   -4.0947    2.2439 N   0  3  1  0  0  0
    3.7672   -4.2229    0.8225 C   0  0
    4.7357   -3.2603    0.1480 C   0  0
    4.7734   -2.0084    1.0638 C   0  0  2  0  0  0
    4.5330   -2.5875    2.4959 C   0  0  2  0  0  0
    8.2160   -2.3467    0.4071 C   0  0
    7.7954   -2.5175   -0.7398 O   0  0
    9.4588   -2.6936    0.8315 O   0  0
   10.3873   -3.2975   -0.0568 C   0  0
    5.2399    4.6466    2.5265 H   0  0
    4.4311    3.5956    3.6811 H   0  0
    3.6020    5.0198    3.0530 H   0  0
    3.6663    4.0005    0.7339 H   0  0
    4.4236    2.5753    1.3843 H   0  0
    1.3780    3.7737    0.3675 H   0  0
   -0.8354    3.2705    1.3751 H   0  0
   -0.1030    2.5177    3.5813 H   0  0
   -1.1248    1.2232    2.9323 H   0  0
    3.1376    0.9923    2.9702 H   0  0
    2.2482    2.1288    4.0332 H   0  0
    1.7735   -0.9678    3.4590 H   0  0
    0.4733   -0.2606    4.4545 H   0  0
   -2.0291   -1.8248   -0.0075 H   0  0
   -3.5973   -3.8346    1.3059 H   0  0
   -3.8039   -4.9325    3.5180 H   0  0
   -2.3367   -4.3222    5.3805 H   0  0
   -0.6005   -2.5904    5.1140 H   0  0
   -1.6517    1.3045    0.3785 H   0  0
   -0.5439    2.0324   -0.6807 H   0  0
    0.1905   -3.4775   -2.8433 H   0  0
    0.1782   -1.9251   -3.6858 H   0  0
   -1.3180   -2.5702   -2.9908 H   0  0
    1.9041   -1.7514    1.1538 H   0  0
    4.2443    1.5406   -1.6690 H   0  0
    1.4430    3.3318   -3.0553 H   0  0
    2.7721    2.2161   -3.3422 H   0  0
    2.8574    3.3958   -2.0106 H   0  0
    6.6229    1.2860   -1.2989 H   0  0
    7.8181    0.3074   -0.4722 H   0  0
    6.7855    1.4132    0.4513 H   0  0
    5.7848   -0.2910    1.7519 H   0  0
    8.2509   -0.0050    1.3708 H   0  0
    7.8873   -2.5647    3.4654 H   0  0
    6.9204   -6.7496    2.3486 H   0  0
    8.5836   -7.0796    2.8505 H   0  0
    8.2690   -6.3329    1.2791 H   0  0
    6.6860   -1.2231    5.0349 H   0  0
    6.0875   -0.3052    3.7241 H   0  0
    4.7842    0.2006    5.6952 H   0  0
    4.3561   -1.4827    5.9420 H   0  0
    3.7262   -0.6038    4.5540 H   0  0
    6.1458   -3.5517    5.5052 H   0  0
    4.4848   -5.1934    5.4596 H   0  0
    3.4844   -5.8020    3.2025 H   0  0
    2.6098   -4.2901    3.5917 H   0  0
    3.8575   -5.2680    0.5250 H   0  0
    2.7171   -3.9280    0.8329 H   0  0
    5.7065   -3.7526    0.1202 H   0  0
    4.4783   -3.0443   -0.8906 H   0  0
    3.5928   -2.2141    2.9000 H   0  0
   11.3234   -3.4957    0.4653 H   0  0
   10.6023   -2.6438   -0.9034 H   0  0
   10.0042   -4.2451   -0.4381 H   0  0
    1.1167    0.6149    1.8253 H   0  0
    5.2022   -4.5247    2.2022 H   0  0
  1  2  1  0
  1 58  1  0
  1 59  1  0
  1 60  1  0
  2  3  1  0
  2 61  1  0
  2 62  1  0
  3  4  2  0
  3  8  1  0
  4  5  1  0
  4 63  1  0
  5  6  1  0
  5 64  1  0
  5 20  1  0
  6  7  1  0
  6 65  1  0
  6 66  1  0
  7  8  1  0
  7  9  1  0
  7112  1  0
  8 67  1  0
  8 68  1  0
  9 10  1  0
  9 69  1  0
  9 70  1  0
 10 11  2  0
 10 18  1  0
 11 12  1  0
 11 19  1  0
 12 13  1  0
 12 71  1  0
 13 14  2  0
 13 18  1  0
 14 15  1  0
 14 72  1  0
 15 16  2  0
 15 73  1  0
 16 17  1  0
 16 74  1  0
 17 18  2  0
 17 75  1  0
 19 20  1  0
 19 21  1  0
 19 25  1  0
 20 76  1  0
 20 77  1  0
 21 22  2  0
 21 23  1  0
 23 24  1  0
 24 78  1  0
 24 79  1  0
 24 80  1  0
 25 26  2  0
 25 30  1  0
 26 27  1  0
 26 81  1  0
 27 28  2  0
 27 52  1  0
 28 29  1  0
 28 33  1  0
 29 30  2  0
 29 82  1  0
 30 31  1  0
 31 32  1  0
 32 83  1  0
 32 84  1  0
 32 85  1  0
 33 34  1  0
 33 35  1  0
 34 86  1  0
 34 87  1  0
 34 88  1  0
 35 36  1  0
 35 89  1  0
 35 52  1  0
 36 37  1  0
 36 38  1  0
 36 54  1  0
 37 90  1  0
 38 39  1  0
 38 43  1  0
 38 91  1  0
 39 40  1  0
 40 41  2  0
 40 42  1  0
 42 92  1  0
 42 93  1  0
 42 94  1  0
 43 44  1  0
 43 46  1  0
 43 53  1  0
 44 45  1  0
 44 95  1  0
 44 96  1  0
 45 97  1  0
 45 98  1  0
 45 99  1  0
 46 47  2  0
 46100  1  0
 47 48  1  0
 47101  1  0
 48 49  1  0
 48102  1  0
 48103  1  0
 49 50  1  0
 49 53  1  0
 49113  1  0
 50 51  1  0
 50104  1  0
 50105  1  0
 51 52  1  0
 51106  1  0
 51107  1  0
 52 53  1  0
 53108  1  0
 54 55  2  0
 54 56  1  0
 56 57  1  0
 57109  1  0
 57110  1  0
 57111  1  0
M  CHG  2   7   1  49   1
M  END
> <Mol2_MolInfo_Name>
14460

> <Mol2_MolInfo_Type>
SMALL

> <Mol2_MolInfo_Charge>
USER_CHARGES

> <Mol2_Substructures>
     1 ****        1 GROUP             0       ****    0 ROOT    

> <Name>
14460

$$$$
14460
  SciTegic06232017503D

113121  0  0  0  0            999 V2000
   -3.6459   -0.3149   -4.7035 C   0  0
   -4.0672    0.8423   -3.7882 C   0  0
   -3.5066    0.7818   -2.3729 C   0  0
   -2.5853    1.6818   -1.9320 C   0  0
   -2.0957    1.7871   -0.4713 C   0  0  1  0  0  0
   -3.0792    1.0550    0.4532 C   0  0
   -3.1866   -0.3314   -0.1999 N   0  3  2  0  0  0
   -4.0925   -0.2969   -1.4406 C   0  0
   -3.1777   -1.5261    0.7510 C   0  0
   -1.8838   -1.3944    1.5517 C   0  0
   -0.6481   -0.7897    1.1947 C   0  0
    0.1146   -0.7797    2.3468 N   0  0
   -0.4892   -1.4384    3.3875 C   0  0
   -0.0487   -1.7037    4.6890 C   0  0
   -0.9231   -2.4017    5.5222 C   0  0
   -2.1791   -2.8131    5.0848 C   0  0
   -2.6124   -2.5415    3.7882 C   0  0
   -1.7606   -1.8479    2.9107 C   0  0
   -0.0646   -0.1246   -0.1114 C   0  0  2  0  0  0
   -0.5905    1.3813   -0.2520 C   0  0
   -0.4035   -0.9152   -1.4188 C   0  0
   -0.9658   -2.0137   -1.4001 O   0  0
    0.0202   -0.2899   -2.5454 O   0  0
   -0.0463   -0.9454   -3.8033 C   0  0
    1.5147   -0.2020   -0.0529 C   0  0
    2.2988    0.9690   -0.0841 C   0  0
    3.6911    0.9237   -0.0383 C   0  0
    4.3396   -0.3109    0.0420 C   0  0
    3.5956   -1.4808    0.1382 C   0  0
    2.1913   -1.4463    0.0846 C   0  0
    1.4255   -2.5964    0.1837 O   0  0
    2.0478   -3.8680    0.3318 C   0  0
    5.7196   -0.0722    0.1271 N   0  0
    6.6948   -1.0379   -0.3730 C   0  0
    5.8857    1.2347   -0.5145 C   0  0  2  0  0  0
    7.2307    2.0500   -0.6643 C   0  0  1  0  0  0
    7.9420    1.4505   -1.7420 O   0  0
    6.9688    3.5649   -1.0945 C   0  0  2  0  0  0
    7.1587    4.4821    0.0038 O   0  0
    7.9840    5.5550   -0.0615 C   0  0
    8.6509    5.9087   -1.0340 O   0  0
    8.0131    6.3339    1.2464 C   0  0
    5.5690    3.8363   -1.7968 C   0  0  2  0  0  0
    5.4755    3.1713   -3.2155 C   0  0
    6.6048    3.4765   -4.2236 C   0  0
    5.3372    5.3469   -2.0845 C   0  0
    4.4303    6.1361   -1.4638 C   0  0
    3.5506    5.6754   -0.3086 C   0  0
    4.2710    4.4526    0.2715 N   0  3  1  0  0  0
    3.8046    3.7559    1.5389 C   0  0
    4.7502    2.5634    1.4948 C   0  0
    4.7056    2.0552    0.0297 C   0  0  2  0  0  0
    4.4347    3.3508   -0.8034 C   0  0  2  0  0  0
    8.1907    1.9267    0.5625 C   0  0
    7.8282    1.4384    1.6359 O   0  0
    9.4293    2.4308    0.3245 O   0  0
   10.4228    2.4240    1.3386 C   0  0
   -4.1808   -0.2686   -5.6523 H   0  0
   -3.8540   -1.2878   -4.2577 H   0  0
   -2.5830   -0.2631   -4.9328 H   0  0
   -3.7866    1.7852   -4.2609 H   0  0
   -5.1554    0.8646   -3.7143 H   0  0
   -2.2192    2.4150   -2.6364 H   0  0
   -2.1694    2.8467   -0.2214 H   0  0
   -2.7447    0.9952    1.4888 H   0  0
   -4.0789    1.4942    0.4436 H   0  0
   -5.1053   -0.0772   -1.1000 H   0  0
   -4.0486   -1.2953   -1.8767 H   0  0
   -4.0960   -1.4263    1.3316 H   0  0
   -3.2232   -2.4182    0.1257 H   0  0
    1.0369   -0.3689    2.3586 H   0  0
    0.9218   -1.3868    5.0416 H   0  0
   -0.6195   -2.6273    6.5343 H   0  0
   -2.8280   -3.3491    5.7622 H   0  0
   -3.5919   -2.8646    3.4677 H   0  0
   -0.0477    1.8800   -1.0564 H   0  0
   -0.2777    1.8995    0.6565 H   0  0
    0.1079   -0.2259   -4.6074 H   0  0
   -1.0117   -1.4279   -3.9575 H   0  0
    0.7288   -1.7094   -3.8745 H   0  0
    1.8480    1.9456   -0.1258 H   0  0
    4.1211   -2.4161    0.2525 H   0  0
    1.2779   -4.6373    0.3884 H   0  0
    2.6348   -3.9222    1.2497 H   0  0
    2.6866   -4.1030   -0.5209 H   0  0
    6.5161   -2.0155    0.0750 H   0  0
    7.7141   -0.7517   -0.1160 H   0  0
    6.6258   -1.1497   -1.4561 H   0  0
    5.6363    0.9903   -1.5468 H   0  0
    8.0710    0.5201   -1.5432 H   0  0
    7.7443    3.8228   -1.8175 H   0  0
    8.4423    5.7211    2.0393 H   0  0
    7.0041    6.6253    1.5381 H   0  0
    8.6164    7.2363    1.1445 H   0  0
    5.3963    2.0922   -3.1576 H   0  0
    4.5299    3.4625   -3.6771 H   0  0
    6.4073    2.9793   -5.1738 H   0  0
    7.5730    3.1176   -3.8775 H   0  0
    6.6996    4.5398   -4.4384 H   0  0
    5.9381    5.8298   -2.8405 H   0  0
    4.3683    7.1686   -1.7759 H   0  0
    3.5061    6.4144    0.4920 H   0  0
    2.5432    5.3957   -0.6204 H   0  0
    3.9509    4.4428    2.3729 H   0  0
    2.7430    3.5368    1.4173 H   0  0
    5.7425    2.9353    1.7457 H   0  0
    4.5185    1.7979    2.2376 H   0  0
    3.4640    3.2831   -1.2996 H   0  0
   11.3471    2.8544    0.9531 H   0  0
   10.6348    1.4075    1.6732 H   0  0
   10.1065    3.0149    2.1994 H   0  0
   -2.2688   -0.4421   -0.6080 H   0  0
    5.2036    4.7703    0.4977 H   0  0
  1  2  1  0
  1 58  1  0
  1 59  1  0
  1 60  1  0
  2  3  1  0
  2 61  1  0
  2 62  1  0
  3  4  2  0
  3  8  1  0
  4  5  1  0
  4 63  1  0
  5  6  1  0
  5 64  1  0
  5 20  1  0
  6  7  1  0
  6 65  1  0
  6 66  1  0
  7  8  1  0
  7  9  1  0
  7112  1  0
  8 67  1  0
  8 68  1  0
  9 10  1  0
  9 69  1  0
  9 70  1  0
 10 11  2  0
 10 18  1  0
 11 12  1  0
 11 19  1  0
 12 13  1  0
 12 71  1  0
 13 14  2  0
 13 18  1  0
 14 15  1  0
 14 72  1  0
 15 16  2  0
 15 73  1  0
 16 17  1  0
 16 74  1  0
 17 18  2  0
 17 75  1  0
 19 20  1  0
 19 21  1  0
 19 25  1  0
 20 76  1  0
 20 77  1  0
 21 22  2  0
 21 23  1  0
 23 24  1  0
 24 78  1  0
 24 79  1  0
 24 80  1  0
 25 26  2  0
 25 30  1  0
 26 27  1  0
 26 81  1  0
 27 28  2  0
 27 52  1  0
 28 29  1  0
 28 33  1  0
 29 30  2  0
 29 82  1  0
 30 31  1  0
 31 32  1  0
 32 83  1  0
 32 84  1  0
 32 85  1  0
 33 34  1  0
 33 35  1  0
 34 86  1  0
 34 87  1  0
 34 88  1  0
 35 36  1  0
 35 89  1  0
 35 52  1  0
 36 37  1  0
 36 38  1  0
 36 54  1  0
 37 90  1  0
 38 39  1  0
 38 43  1  0
 38 91  1  0
 39 40  1  0
 40 41  2  0
 40 42  1  0
 42 92  1  0
 42 93  1  0
 42 94  1  0
 43 44  1  0
 43 46  1  0
 43 53  1  0
 44 45  1  0
 44 95  1  0
 44 96  1  0
 45 97  1  0
 45 98  1  0
 45 99  1  0
 46 47  2  0
 46100  1  0
 47 48  1  0
 47101  1  0
 48 49  1  0
 48102  1  0
 48103  1  0
 49 50  1  0
 49 53  1  0
 49113  1  0
 50 51  1  0
 50104  1  0
 50105  1  0
 51 52  1  0
 51106  1  0
 51107  1  0
 52 53  1  0
 53108  1  0
 54 55  2  0
 54 56  1  0
 56 57  1  0
 57109  1  0
 57110  1  0
 57111  1  0
M  CHG  2   7   1  49   1
M  END
> <Mol2_MolInfo_Name>
14460

> <Mol2_MolInfo_Type>
SMALL

> <Mol2_MolInfo_Charge>
USER_CHARGES

> <Mol2_Substructures>
     1 ****        1 GROUP             0       ****    0 ROOT    

> <Name>
14460

$$$$
14460
  SciTegic06232017503D

113121  0  0  0  0            999 V2000
   -2.4654    6.1241    1.1877 C   0  0
   -3.2037    4.9795    1.9050 C   0  0
   -3.0074    3.5616    1.3678 C   0  0
   -2.2383    3.2656    0.2915 C   0  0
   -1.9923    1.8600   -0.2607 C   0  0  2  0  0  0
   -3.0636    0.8833    0.3005 C   0  0
   -3.2343    1.0565    1.8265 N   0  3  2  0  0  0
   -3.7855    2.4740    2.1192 C   0  0
   -1.9613    0.7483    2.6560 C   0  0
   -1.3159   -0.5606    2.2125 C   0  0
   -0.5199   -0.8459    1.0823 C   0  0
   -0.2007   -2.1864    1.1544 N   0  0
   -0.7265   -2.7948    2.2636 C   0  0
   -0.6421   -4.1162    2.7154 C   0  0
   -1.3023   -4.4197    3.9057 C   0  0
   -2.0147   -3.4556    4.6131 C   0  0
   -2.0951   -2.1415    4.1550 C   0  0
   -1.4429   -1.7876    2.9596 C   0  0
    0.0096   -0.0025   -0.1198 C   0  0  2  0  0  0
   -0.4882    1.4936   -0.0232 C   0  0
   -0.5212   -0.5311   -1.4969 C   0  0
   -1.3408   -1.4507   -1.5803 O   0  0
    0.0070    0.1316   -2.5568 O   0  0
   -0.3552   -0.2188   -3.8841 C   0  0
    1.5885   -0.0993   -0.1148 C   0  0
    2.3412    0.9493    0.4523 C   0  0
    3.7323    0.9218    0.5032 C   0  0
    4.4183   -0.1795   -0.0086 C   0  0
    3.7097   -1.2634   -0.5116 C   0  0
    2.3042   -1.2422   -0.5781 C   0  0
    1.5926   -2.3282   -1.0620 O   0  0
    2.2659   -3.4940   -1.5267 C   0  0
    5.7873    0.0164    0.2249 N   0  0
    6.8044   -0.5682   -0.6444 C   0  0
    5.9244    1.4732    0.3028 C   0  0  2  0  0  0
    7.2463    2.2801    0.6239 C   0  0  1  0  0  0
    8.0331    2.2640   -0.5628 O   0  0
    6.9399    3.8189    0.9305 C   0  0  2  0  0  0
    7.0808    4.1362    2.3306 O   0  0
    7.8826    5.1281    2.7866 C   0  0
    8.5669    5.8906    2.1042 O   0  0
    7.8591    5.2265    4.3056 C   0  0
    5.5455    4.3456    0.3836 C   0  0  2  0  0  0
    5.5999    4.4252   -1.1814 C   0  0
    4.2571    4.6961   -1.8878 C   0  0
    5.2666    5.8124    0.8123 C   0  0
    4.3258    6.2047    1.7022 C   0  0
    3.4475    5.2410    2.4917 C   0  0
    4.1926    3.9003    2.4564 N   0  3  1  0  0  0
    3.7204    2.6830    3.2342 C   0  0
    4.7003    1.6646    2.6666 C   0  0
    4.7059    1.9048    1.1338 C   0  0  2  0  0  0
    4.4074    3.4306    0.9978 C   0  0  2  0  0  0
    8.1556    1.6069    1.7021 C   0  0
    7.7789    0.6437    2.3747 O   0  0
    9.3701    2.2026    1.8240 O   0  0
   10.3148    1.7351    2.7753 C   0  0
   -2.6871    7.0815    1.6601 H   0  0
   -2.7656    6.2004    0.1421 H   0  0
   -1.3843    5.9853    1.2233 H   0  0
   -2.9073    4.9813    2.9547 H   0  0
   -4.2733    5.1939    1.8937 H   0  0
   -1.7237    4.0723   -0.2082 H   0  0
   -2.1544    1.9002   -1.3389 H   0  0
   -4.0482    1.1071   -0.1143 H   0  0
   -2.8877   -0.1705    0.0983 H   0  0
   -3.7890    2.6058    3.2024 H   0  0
   -4.8150    2.4545    1.7584 H   0  0
   -1.3183    1.6230    2.6212 H   0  0
   -2.3430    0.6939    3.6760 H   0  0
    0.3645   -2.6275    0.4425 H   0  0
   -0.0922   -4.8729    2.1748 H   0  0
   -1.2600   -5.4289    4.2892 H   0  0
   -2.5123   -3.7312    5.5317 H   0  0
   -2.6535   -1.4105    4.7205 H   0  0
    0.0866    2.0972   -0.7298 H   0  0
   -0.1852    1.8948    0.9381 H   0  0
    0.1716    0.4206   -4.5924 H   0  0
   -1.4269   -0.0922   -4.0442 H   0  0
   -0.0913   -1.2549   -4.1011 H   0  0
    1.8643    1.8134    0.8798 H   0  0
    4.2666   -2.1241   -0.8468 H   0  0
    1.5282   -4.2202   -1.8676 H   0  0
    2.8468   -3.9645   -0.7321 H   0  0
    2.9203   -3.2700   -2.3702 H   0  0
    6.6461   -1.6430   -0.7338 H   0  0
    7.8068   -0.4262   -0.2420 H   0  0
    6.7649   -0.1405   -1.6474 H   0  0
    5.6986    1.7678   -0.7240 H   0  0
    8.1881    1.3509   -0.8158 H   0  0
    7.7091    4.4006    0.4167 H   0  0
    6.8388    5.3711    4.6606 H   0  0
    8.4649    6.0662    4.6467 H   0  0
    8.2567    4.3130    4.7480 H   0  0
    6.3068    5.2020   -1.4807 H   0  0
    6.0179    3.5308   -1.6312 H   0  0
    4.4082    4.8322   -2.9590 H   0  0
    3.7706    5.5957   -1.5106 H   0  0
    3.5655    3.8623   -1.7665 H   0  0
    5.8601    6.5979    0.3650 H   0  0
    4.2297    7.2635    1.8949 H   0  0
    3.3711    5.5227    3.5422 H   0  0
    2.4524    5.1194    2.0614 H   0  0
    3.8295    2.9010    4.2970 H   0  0
    2.6682    2.5289    2.9916 H   0  0
    5.6730    1.8916    3.0997 H   0  0
    4.4725    0.6367    2.9542 H   0  0
    3.4414    3.5828    0.5138 H   0  0
   11.2284    2.3263    2.7108 H   0  0
   10.5726    0.6911    2.5921 H   0  0
    9.9236    1.8234    3.7898 H   0  0
   -3.9403    0.3918    2.1108 H   0  0
    5.1111    4.0901    2.8329 H   0  0
  1  2  1  0
  1 58  1  0
  1 59  1  0
  1 60  1  0
  2  3  1  0
  2 61  1  0
  2 62  1  0
  3  4  2  0
  3  8  1  0
  4  5  1  0
  4 63  1  0
  5  6  1  0
  5 64  1  0
  5 20  1  0
  6  7  1  0
  6 65  1  0
  6 66  1  0
  7  8  1  0
  7  9  1  0
  7112  1  0
  8 67  1  0
  8 68  1  0
  9 10  1  0
  9 69  1  0
  9 70  1  0
 10 11  2  0
 10 18  1  0
 11 12  1  0
 11 19  1  0
 12 13  1  0
 12 71  1  0
 13 14  2  0
 13 18  1  0
 14 15  1  0
 14 72  1  0
 15 16  2  0
 15 73  1  0
 16 17  1  0
 16 74  1  0
 17 18  2  0
 17 75  1  0
 19 20  1  0
 19 21  1  0
 19 25  1  0
 20 76  1  0
 20 77  1  0
 21 22  2  0
 21 23  1  0
 23 24  1  0
 24 78  1  0
 24 79  1  0
 24 80  1  0
 25 26  2  0
 25 30  1  0
 26 27  1  0
 26 81  1  0
 27 28  2  0
 27 52  1  0
 28 29  1  0
 28 33  1  0
 29 30  2  0
 29 82  1  0
 30 31  1  0
 31 32  1  0
 32 83  1  0
 32 84  1  0
 32 85  1  0
 33 34  1  0
 33 35  1  0
 34 86  1  0
 34 87  1  0
 34 88  1  0
 35 36  1  0
 35 89  1  0
 35 52  1  0
 36 37  1  0
 36 38  1  0
 36 54  1  0
 37 90  1  0
 38 39  1  0
 38 43  1  0
 38 91  1  0
 39 40  1  0
 40 41  2  0
 40 42  1  0
 42 92  1  0
 42 93  1  0
 42 94  1  0
 43 44  1  0
 43 46  1  0
 43 53  1  0
 44 45  1  0
 44 95  1  0
 44 96  1  0
 45 97  1  0
 45 98  1  0
 45 99  1  0
 46 47  2  0
 46100  1  0
 47 48  1  0
 47101  1  0
 48 49  1  0
 48102  1  0
 48103  1  0
 49 50  1  0
 49 53  1  0
 49113  1  0
 50 51  1  0
 50104  1  0
 50105  1  0
 51 52  1  0
 51106  1  0
 51107  1  0
 52 53  1  0
 53108  1  0
 54 55  2  0
 54 56  1  0
 56 57  1  0
 57109  1  0
 57110  1  0
 57111  1  0
M  CHG  2   7   1  49   1
M  END
> <Mol2_MolInfo_Name>
14460

> <Mol2_MolInfo_Type>
SMALL

> <Mol2_MolInfo_Charge>
USER_CHARGES

> <Mol2_Substructures>
     1 ****        1 GROUP             0       ****    0 ROOT    

> <Name>
14460

$$$$
14460
  SciTegic06232017503D

113121  0  0  0  0            999 V2000
   -4.6359    5.3414   -1.4903 C   0  0
   -3.1965    4.8094   -1.5438 C   0  0
   -3.0612    3.3402   -1.1667 C   0  0
   -2.3634    2.9512   -0.0755 C   0  0
   -2.1287    1.5009    0.3523 C   0  0  1  0  0  0
   -3.1059    0.5575   -0.4024 C   0  0
   -3.1664    0.9047   -1.9084 N   0  3  1  0  0  0
   -3.7594    2.3258   -2.0800 C   0  0
   -1.8092    0.7637   -2.6417 C   0  0
   -1.1607   -0.5763   -2.3292 C   0  0
   -0.4541   -0.9854   -1.1821 C   0  0
   -0.0406   -2.2841   -1.4163 N   0  0
   -0.4375   -2.7482   -2.6432 C   0  0
   -0.2306   -3.9807   -3.2725 C   0  0
   -0.7727   -4.1371   -4.5478 C   0  0
   -1.4877   -3.1168   -5.1686 C   0  0
   -1.6886   -1.8916   -4.5352 C   0  0
   -1.1583   -1.6867   -3.2486 C   0  0
   -0.0396   -0.2799    0.1528 C   0  0  1  0  0  0
   -0.5974    1.1911    0.2473 C   0  0
   -0.5437   -1.1682    1.3474 C   0  0
   -1.4426   -0.8063    2.1104 O   0  0
    0.1390   -2.3355    1.4760 O   0  0
   -0.1620   -3.2407    2.5280 C   0  0
    1.5283   -0.1311    0.2370 C   0  0
    2.2803   -0.1661   -0.9531 C   0  0
    3.6669   -0.0695   -0.9530 C   0  0
    4.3464    0.0976    0.2549 C   0  0
    3.6279    0.2514    1.4362 C   0  0
    2.2236    0.1468    1.4465 C   0  0
    1.4878    0.3367    2.6043 O   0  0
    2.1420    0.5857    3.8439 C   0  0
    5.7174    0.1909   -0.0317 N   0  0
    6.7279   -0.2421    0.9295 C   0  0
    5.8513   -0.5263   -1.3030 C   0  0  2  0  0  0
    7.1790   -0.7331   -2.1388 C   0  0  1  0  0  0
    7.8801   -1.8144   -1.5298 O   0  0
    6.8707   -1.2225   -3.6247 C   0  0  2  0  0  0
    7.0119   -0.1517   -4.5800 O   0  0
    7.7906   -0.2441   -5.6838 C   0  0
    8.4500   -1.2221   -6.0363 O   0  0
    7.7696    1.0377   -6.5053 C   0  0
    5.4725   -1.9547   -3.8115 C   0  0  2  0  0  0
    5.4924   -3.3386   -3.0749 C   0  0
    4.1528   -4.1030   -3.0335 C   0  0
    5.2152   -2.3380   -5.2941 C   0  0
    4.2746   -1.7862   -6.0947 C   0  0
    3.3784   -0.6262   -5.6779 C   0  0
    4.1140    0.0455   -4.5113 N   0  3  1  0  0  0
    3.6261    1.3350   -3.8728 C   0  0
    4.6163    1.3894   -2.7174 C   0  0
    4.6387   -0.0425   -2.1194 C   0  0  2  0  0  0
    4.3366   -0.9538   -3.3510 C   0  0  2  0  0  0
    8.1934    0.4589   -2.0910 C   0  0
    9.4063    0.2858   -2.2534 O   0  0
    7.6229    1.6603   -1.8585 O   0  0
    8.4101    2.8401   -1.7890 C   0  0
   -4.6673    6.4006   -1.7474 H   0  0
   -5.0609    5.2316   -0.4919 H   0  0
   -5.2844    4.8149   -2.1913 H   0  0
   -2.7953    4.9424   -2.5495 H   0  0
   -2.5710    5.4218   -0.8919 H   0  0
   -1.9020    3.7233    0.5244 H   0  0
   -2.4062    1.4418    1.4053 H   0  0
   -2.8925   -0.5048   -0.2983 H   0  0
   -4.1289    0.6952   -0.0473 H   0  0
   -4.8066    2.2334   -1.7886 H   0  0
   -3.7030    2.5804   -3.1396 H   0  0
   -2.0776    0.8626   -3.6941 H   0  0
   -1.2044    1.6310   -2.3904 H   0  0
    0.4993   -2.7930   -0.7309 H   0  0
    0.3223   -4.7800   -2.8007 H   0  0
   -0.6367   -5.0748   -5.0673 H   0  0
   -1.8935   -3.2782   -6.1569 H   0  0
   -2.2458   -1.1141   -5.0363 H   0  0
   -0.1572    1.7538   -0.5751 H   0  0
   -0.1503    1.6746    1.1181 H   0  0
    0.4843   -4.1158    2.4599 H   0  0
   -1.1979   -3.5782    2.4716 H   0  0
   -0.0009   -2.7748    3.5012 H   0  0
    1.7928   -0.2707   -1.9089 H   0  0
    4.1736    0.4530    2.3446 H   0  0
    1.3928    0.6884    4.6286 H   0  0
    2.7173    1.5121    3.8151 H   0  0
    2.7989   -0.2400    4.1219 H   0  0
    6.5767    0.2637    1.8834 H   0  0
    7.7350    0.0033    0.5952 H   0  0
    6.6715   -1.3168    1.1089 H   0  0
    5.6036   -1.5475   -1.0027 H   0  0
    8.0772   -1.5789   -0.6202 H   0  0
    7.6402   -1.9542   -3.8830 H   0  0
    6.7530    1.2665   -6.8258 H   0  0
    8.3956    0.9371   -7.3922 H   0  0
    8.1448    1.8722   -5.9127 H   0  0
    6.2417   -3.9836   -3.5387 H   0  0
    5.8300   -3.2582   -2.0477 H   0  0
    4.2884   -5.0873   -2.5845 H   0  0
    3.7350   -4.2559   -4.0286 H   0  0
    3.4092   -3.5791   -2.4328 H   0  0
    5.8217   -3.1187   -5.7320 H   0  0
    4.1921   -2.1635   -7.1039 H   0  0
    3.2924    0.1273   -6.4615 H   0  0
    2.3875   -0.9461   -5.3519 H   0  0
    3.7201    2.1313   -4.6117 H   0  0
    2.5775    1.1921   -3.6083 H   0  0
    5.5777    1.6440   -3.1571 H   0  0
    4.3968    2.1729   -1.9898 H   0  0
    3.3710   -1.4462   -3.2277 H   0  0
    7.7703    3.6996   -1.5896 H   0  0
    8.9337    3.0167   -2.7297 H   0  0
    9.1476    2.7731   -0.9879 H   0  0
   -3.8088    0.2503   -2.3326 H   0  0
    5.0306    0.2803   -4.8669 H   0  0
  1  2  1  0
  1 58  1  0
  1 59  1  0
  1 60  1  0
  2  3  1  0
  2 61  1  0
  2 62  1  0
  3  4  2  0
  3  8  1  0
  4  5  1  0
  4 63  1  0
  5  6  1  0
  5 64  1  0
  5 20  1  0
  6  7  1  0
  6 65  1  0
  6 66  1  0
  7  8  1  0
  7  9  1  0
  7112  1  0
  8 67  1  0
  8 68  1  0
  9 10  1  0
  9 69  1  0
  9 70  1  0
 10 11  2  0
 10 18  1  0
 11 12  1  0
 11 19  1  0
 12 13  1  0
 12 71  1  0
 13 14  2  0
 13 18  1  0
 14 15  1  0
 14 72  1  0
 15 16  2  0
 15 73  1  0
 16 17  1  0
 16 74  1  0
 17 18  2  0
 17 75  1  0
 19 20  1  0
 19 21  1  0
 19 25  1  0
 20 76  1  0
 20 77  1  0
 21 22  2  0
 21 23  1  0
 23 24  1  0
 24 78  1  0
 24 79  1  0
 24 80  1  0
 25 26  2  0
 25 30  1  0
 26 27  1  0
 26 81  1  0
 27 28  2  0
 27 52  1  0
 28 29  1  0
 28 33  1  0
 29 30  2  0
 29 82  1  0
 30 31  1  0
 31 32  1  0
 32 83  1  0
 32 84  1  0
 32 85  1  0
 33 34  1  0
 33 35  1  0
 34 86  1  0
 34 87  1  0
 34 88  1  0
 35 36  1  0
 35 89  1  0
 35 52  1  0
 36 37  1  0
 36 38  1  0
 36 54  1  0
 37 90  1  0
 38 39  1  0
 38 43  1  0
 38 91  1  0
 39 40  1  0
 40 41  2  0
 40 42  1  0
 42 92  1  0
 42 93  1  0
 42 94  1  0
 43 44  1  0
 43 46  1  0
 43 53  1  0
 44 45  1  0
 44 95  1  0
 44 96  1  0
 45 97  1  0
 45 98  1  0
 45 99  1  0
 46 47  2  0
 46100  1  0
 47 48  1  0
 47101  1  0
 48 49  1  0
 48102  1  0
 48103  1  0
 49 50  1  0
 49 53  1  0
 49113  1  0
 50 51  1  0
 50104  1  0
 50105  1  0
 51 52  1  0
 51106  1  0
 51107  1  0
 52 53  1  0
 53108  1  0
 54 55  2  0
 54 56  1  0
 56 57  1  0
 57109  1  0
 57110  1  0
 57111  1  0
M  CHG  2   7   1  49   1
M  END
> <Mol2_MolInfo_Name>
14460

> <Mol2_MolInfo_Type>
SMALL

> <Mol2_MolInfo_Charge>
USER_CHARGES

> <Mol2_Substructures>
     1 ****        1 GROUP             0       ****    0 ROOT    

> <Name>
14460

$$$$
14460
  SciTegic06232017503D

113121  0  0  0  0            999 V2000
   -4.2253   -0.2529    4.4345 C   0  0
   -4.0562    1.0671    3.6640 C   0  0
   -3.5393    0.9460    2.2328 C   0  0
   -2.5951    1.8013    1.7503 C   0  0
   -2.0836    1.8140    0.2918 C   0  0  2  0  0  0
   -3.0375    1.0087   -0.6034 C   0  0
   -3.1768   -0.3183    0.1569 N   0  3  1  0  0  0
   -4.1288   -0.1753    1.3533 C   0  0
   -3.1348   -1.5926   -0.6818 C   0  0
   -1.8070   -1.5395   -1.4327 C   0  0
   -0.5836   -0.9019   -1.0881 C   0  0
    0.2216   -1.0073   -2.2063 N   0  0
   -0.3413   -1.7686   -3.1980 C   0  0
    0.1502   -2.1618   -4.4477 C   0  0
   -0.6916   -2.9418   -5.2406 C   0  0
   -1.9642   -3.3108   -4.8135 C   0  0
   -2.4478   -2.9114   -3.5685 C   0  0
   -1.6306   -2.1301   -2.7325 C   0  0
   -0.0406   -0.1034    0.1608 C   0  0  1  0  0  0
   -0.5727    1.4054    0.1300 C   0  0
   -0.4191   -0.7378    1.5404 C   0  0
   -1.0266   -1.8073    1.6365 O   0  0
    0.0241   -0.0046    2.5944 O   0  0
   -0.1388   -0.4679    3.9254 C   0  0
    1.5395   -0.1828    0.1513 C   0  0
    2.3239    0.9863    0.0833 C   0  0
    3.7161    0.9359    0.0527 C   0  0
    4.3633   -0.3018    0.0740 C   0  0
    3.6212   -1.4730    0.1717 C   0  0
    2.2162   -1.4339    0.1831 C   0  0
    1.4499   -2.5875    0.2151 O   0  0
    2.0720   -3.8677    0.2236 C   0  0
    5.7466   -0.0679    0.0898 N   0  0
    6.6887   -1.0288   -0.4783 C   0  0
    5.8812    1.2477   -0.5422 C   0  0  2  0  0  0
    7.2175    2.0629   -0.7572 C   0  0  1  0  0  0
    7.8666    1.4758   -1.8799 O   0  0
    6.9365    3.5833   -1.1541 C   0  0  2  0  0  0
    7.1909    4.4889   -0.0592 O   0  0
    8.0059    5.5664   -0.1638 C   0  0
    8.6203    5.9264   -1.1679 O   0  0
    8.0931    6.3449    1.1416 C   0  0
    5.4997    3.8671   -1.7712 C   0  0  2  0  0  0
    5.3233    3.2209   -3.1906 C   0  0
    6.3925    3.5387   -4.2587 C   0  0
    5.2563    5.3820   -2.0255 C   0  0
    4.3909    6.1660   -1.3420 C   0  0
    3.5790    5.6926   -0.1431 C   0  0
    4.3260    4.4588    0.3772 N   0  3  1  0  0  0
    3.9288    3.7457    1.6591 C   0  0
    4.8659    2.5511    1.5456 C   0  0
    4.7366    2.0636    0.0786 C   0  0  2  0  0  0
    4.4231    3.3716   -0.7201 C   0  0  2  0  0  0
    8.2435    1.9223    0.4125 C   0  0
    7.9430    1.4121    1.4948 O   0  0
    9.4643    2.4385    0.1166 O   0  0
   10.5135    2.4158    1.0727 C   0  0
   -4.4831   -0.0605    5.4763 H   0  0
   -3.3151   -0.8501    4.4255 H   0  0
   -5.0264   -0.8609    4.0134 H   0  0
   -5.0229    1.5703    3.6222 H   0  0
   -3.4014    1.7271    4.2357 H   0  0
   -2.2102    2.5572    2.4200 H   0  0
   -2.1595    2.8534   -0.0314 H   0  0
   -4.0340    1.4500   -0.6675 H   0  0
   -2.6657    0.8585   -1.6170 H   0  0
   -4.1246   -1.1474    1.8467 H   0  0
   -5.1226    0.0464    0.9623 H   0  0
   -3.2132   -2.4254    0.0178 H   0  0
   -4.0262   -1.5427   -1.3088 H   0  0
    1.1438   -0.5963   -2.2251 H   0  0
    1.1344   -1.8788   -4.7914 H   0  0
   -0.3489   -3.2659   -6.2125 H   0  0
   -2.5868   -3.9131   -5.4590 H   0  0
   -3.4394   -3.2032   -3.2560 H   0  0
   -0.2462    1.8314   -0.8206 H   0  0
   -0.0491    1.9885    0.8890 H   0  0
    0.3020    0.2455    4.6214 H   0  0
    0.3538   -1.4309    4.0683 H   0  0
   -1.1924   -0.5773    4.1750 H   0  0
    1.8748    1.9640    0.0551 H   0  0
    4.1479   -2.4134    0.2194 H   0  0
    1.3014   -4.6383    0.2365 H   0  0
    2.6910   -4.0070    1.1111 H   0  0
    2.6794   -4.0245   -0.6690 H   0  0
    6.5348   -2.0110   -0.0308 H   0  0
    7.7218   -0.7469   -0.2790 H   0  0
    6.5549   -1.1292   -1.5564 H   0  0
    5.5736    1.0184   -1.5623 H   0  0
    7.9944    0.5404   -1.7051 H   0  0
    7.6693    3.8480   -1.9179 H   0  0
    8.4732    5.7061    1.9386 H   0  0
    7.1083    6.7121    1.4289 H   0  0
    8.7618    7.1995    1.0370 H   0  0
    5.2461    2.1413   -3.1427 H   0  0
    4.3525    3.5191   -3.5918 H   0  0
    6.1383    3.0562   -5.2030 H   0  0
    7.3782    3.1721   -3.9753 H   0  0
    6.4784    4.6047   -4.4635 H   0  0
    5.8133    5.8734   -2.8093 H   0  0
    4.3153    7.2030   -1.6362 H   0  0
    3.5849    6.4206    0.6686 H   0  0
    2.5539    5.4205   -0.3989 H   0  0
    4.1241    4.4206    2.4929 H   0  0
    2.8614    3.5302    1.5946 H   0  0
    5.8720    2.9166    1.7454 H   0  0
    4.6731    1.7762    2.2897 H   0  0
    3.4252    3.3141   -1.1597 H   0  0
   11.4060    2.8788    0.6521 H   0  0
   10.7625    1.3925    1.3572 H   0  0
   10.2359    2.9691    1.9712 H   0  0
   -2.2769   -0.3968    0.6099 H   0  0
    5.2716    4.7694    0.5536 H   0  0
  1  2  1  0
  1 58  1  0
  1 59  1  0
  1 60  1  0
  2  3  1  0
  2 61  1  0
  2 62  1  0
  3  4  2  0
  3  8  1  0
  4  5  1  0
  4 63  1  0
  5  6  1  0
  5 64  1  0
  5 20  1  0
  6  7  1  0
  6 65  1  0
  6 66  1  0
  7  8  1  0
  7  9  1  0
  7112  1  0
  8 67  1  0
  8 68  1  0
  9 10  1  0
  9 69  1  0
  9 70  1  0
 10 11  2  0
 10 18  1  0
 11 12  1  0
 11 19  1  0
 12 13  1  0
 12 71  1  0
 13 14  2  0
 13 18  1  0
 14 15  1  0
 14 72  1  0
 15 16  2  0
 15 73  1  0
 16 17  1  0
 16 74  1  0
 17 18  2  0
 17 75  1  0
 19 20  1  0
 19 21  1  0
 19 25  1  0
 20 76  1  0
 20 77  1  0
 21 22  2  0
 21 23  1  0
 23 24  1  0
 24 78  1  0
 24 79  1  0
 24 80  1  0
 25 26  2  0
 25 30  1  0
 26 27  1  0
 26 81  1  0
 27 28  2  0
 27 52  1  0
 28 29  1  0
 28 33  1  0
 29 30  2  0
 29 82  1  0
 30 31  1  0
 31 32  1  0
 32 83  1  0
 32 84  1  0
 32 85  1  0
 33 34  1  0
 33 35  1  0
 34 86  1  0
 34 87  1  0
 34 88  1  0
 35 36  1  0
 35 89  1  0
 35 52  1  0
 36 37  1  0
 36 38  1  0
 36 54  1  0
 37 90  1  0
 38 39  1  0
 38 43  1  0
 38 91  1  0
 39 40  1  0
 40 41  2  0
 40 42  1  0
 42 92  1  0
 42 93  1  0
 42 94  1  0
 43 44  1  0
 43 46  1  0
 43 53  1  0
 44 45  1  0
 44 95  1  0
 44 96  1  0
 45 97  1  0
 45 98  1  0
 45 99  1  0
 46 47  2  0
 46100  1  0
 47 48  1  0
 47101  1  0
 48 49  1  0
 48102  1  0
 48103  1  0
 49 50  1  0
 49 53  1  0
 49113  1  0
 50 51  1  0
 50104  1  0
 50105  1  0
 51 52  1  0
 51106  1  0
 51107  1  0
 52 53  1  0
 53108  1  0
 54 55  2  0
 54 56  1  0
 56 57  1  0
 57109  1  0
 57110  1  0
 57111  1  0
M  CHG  2   7   1  49   1
M  END
> <Mol2_MolInfo_Name>
14460

> <Mol2_MolInfo_Type>
SMALL

> <Mol2_MolInfo_Charge>
USER_CHARGES

> <Mol2_Substructures>
     1 ****        1 GROUP             0       ****    0 ROOT    

> <Name>
14460

$$$$
14460
  SciTegic06232017503D

113121  0  0  0  0            999 V2000
    3.4954    4.8874   -2.8192 C   0  0
    3.1392    3.9633   -1.6463 C   0  0
    1.8773    3.1424   -1.8679 C   0  0
    0.7795    3.2912   -1.0778 C   0  0
   -0.5259    2.4859   -1.2368 C   0  0  1  0  0  0
   -0.5774    1.8650   -2.6355 C   0  0
    0.7645    1.1244   -2.7185 N   0  3  2  0  0  0
    1.9212    2.0964   -2.9964 C   0  0
    0.6966   -0.2405   -3.3876 C   0  0
   -0.2344   -1.0703   -2.5039 C   0  0
   -0.5361   -0.9365   -1.1189 C   0  0
   -1.5395   -1.8558   -0.8677 N   0  0
   -1.8366   -2.6342   -1.9576 C   0  0
   -2.7389   -3.6920   -2.1158 C   0  0
   -2.8073   -4.2813   -3.3782 C   0  0
   -2.0183   -3.8386   -4.4362 C   0  0
   -1.1238   -2.7822   -4.2715 C   0  0
   -1.0177   -2.1624   -3.0140 C   0  0
   -0.0119    0.0250    0.0306 C   0  0  1  0  0  0
   -0.7801    1.4355   -0.0925 C   0  0
   -0.2841   -0.6331    1.4388 C   0  0
   -0.0261   -1.8249    1.6433 O   0  0
   -0.7982    0.1985    2.3783 O   0  0
   -1.0701   -0.2652    3.6928 C   0  0
    1.5580    0.1199    0.0809 C   0  0
    2.3332   -0.8974   -0.5154 C   0  0
    3.7250   -0.8995   -0.4548 C   0  0
    4.3812    0.1450    0.1996 C   0  0
    3.6487    1.1628    0.7985 C   0  0
    2.2433    1.1292    0.8073 C   0  0
    1.5009    2.0459    1.5290 O   0  0
    2.1462    3.0421    2.3156 C   0  0
    5.7614   -0.0359    0.0302 N   0  0
    6.7210    0.4863    1.0003 C   0  0
    5.8895   -1.4884   -0.1155 C   0  0  2  0  0  0
    7.2211   -2.3039   -0.3477 C   0  0  1  0  0  0
    7.8862   -2.3599    0.9099 O   0  0
    6.9283   -3.8191   -0.7546 C   0  0  2  0  0  0
    7.1811   -4.0632   -2.1545 O   0  0
    7.9968   -5.0504   -2.5983 C   0  0
    8.6037   -5.8672   -1.9055 O   0  0
    8.0970   -5.0687   -4.1174 C   0  0
    5.4883   -4.3624   -0.3553 C   0  0  2  0  0  0
    5.3098   -4.5123    1.1975 C   0  0
    6.3810   -5.3172    1.9653 C   0  0
    5.2383   -5.8021   -0.8876 C   0  0
    4.3726   -6.1374   -1.8713 C   0  0
    3.5692   -5.1249   -2.6762 C   0  0
    4.3251   -3.8006   -2.5121 N   0  3  1  0  0  0
    3.9230   -2.5472   -3.2658 C   0  0
    4.8500   -1.5564   -2.5720 C   0  0
    4.7339   -1.8689   -1.0576 C   0  0  2  0  0  0
    4.4163   -3.4023   -1.0195 C   0  0  2  0  0  0
    8.2374   -1.5977   -1.3009 C   0  0
    7.9362   -0.6017   -1.9636 O   0  0
    9.4514   -2.2052   -1.3319 O   0  0
   10.4900   -1.7087   -2.1628 C   0  0
    4.3985    5.4587   -2.6033 H   0  0
    2.6940    5.5998   -3.0182 H   0  0
    3.6758    4.3219   -3.7338 H   0  0
    3.9655    3.2760   -1.4598 H   0  0
    3.0409    4.5628   -0.7398 H   0  0
    0.8218    4.0248   -0.2855 H   0  0
   -1.3352    3.2160   -1.1870 H   0  0
   -1.4208    1.1889   -2.7788 H   0  0
   -0.5914    2.6090   -3.4346 H   0  0
    1.7643    2.5185   -3.9899 H   0  0
    2.8363    1.5032   -2.9748 H   0  0
    0.3319   -0.0437   -4.3971 H   0  0
    1.7234   -0.5945   -3.4273 H   0  0
   -1.9493   -1.9426    0.0513 H   0  0
   -3.3580   -4.0433   -1.3031 H   0  0
   -3.4917   -5.1015   -3.5406 H   0  0
   -2.1038   -4.3203   -5.3997 H   0  0
   -0.5225   -2.4490   -5.1045 H   0  0
   -0.7360    2.0116    0.8298 H   0  0
   -1.8416    1.1872   -0.1569 H   0  0
   -1.4797    0.5462    4.2945 H   0  0
   -0.1595   -0.6208    4.1772 H   0  0
   -1.7966   -1.0789    3.6797 H   0  0
    1.8572   -1.7247   -1.0161 H   0  0
    4.1857    1.9539    1.2979 H   0  0
    1.3906    3.6440    2.8199 H   0  0
    2.7436    3.7150    1.6988 H   0  0
    2.7803    2.5976    3.0840 H   0  0
    6.5740    1.5589    1.1287 H   0  0
    7.7489    0.3451    0.6686 H   0  0
    6.5995    0.0139    1.9763 H   0  0
    5.5905   -1.8169    0.8790 H   0  0
    8.0135   -1.4634    1.2289 H   0  0
    7.6571   -4.4329   -0.2228 H   0  0
    8.4029   -4.0904   -4.4895 H   0  0
    7.1322   -5.3239   -4.5561 H   0  0
    8.8302   -5.8059   -4.4457 H   0  0
    5.2239   -3.5556    1.6984 H   0  0
    4.3407   -4.9760    1.3946 H   0  0
    6.1221   -5.3747    3.0230 H   0  0
    7.3642   -4.8520    1.9077 H   0  0
    6.4742   -6.3415    1.6078 H   0  0
    5.7895   -6.6212   -0.4507 H   0  0
    4.2902   -7.1829   -2.1315 H   0  0
    3.5751   -5.3524   -3.7426 H   0  0
    2.5442   -5.0098   -2.3207 H   0  0
    4.1143   -2.7144   -4.3261 H   0  0
    2.8551   -2.4272   -3.0911 H   0  0
    5.8565   -1.7629   -2.9332 H   0  0
    4.6422   -0.5161   -2.8282 H   0  0
    3.4158   -3.5668   -0.6127 H   0  0
   11.3820   -2.3247   -2.0483 H   0  0
   10.7486   -0.6831   -1.8953 H   0  0
   10.1949   -1.7298   -3.2130 H   0  0
    0.9271    0.8499   -1.7592 H   0  0
    5.2707   -3.9829   -2.8193 H   0  0
  1  2  1  0
  1 58  1  0
  1 59  1  0
  1 60  1  0
  2  3  1  0
  2 61  1  0
  2 62  1  0
  3  4  2  0
  3  8  1  0
  4  5  1  0
  4 63  1  0
  5  6  1  0
  5 64  1  0
  5 20  1  0
  6  7  1  0
  6 65  1  0
  6 66  1  0
  7  8  1  0
  7  9  1  0
  7112  1  0
  8 67  1  0
  8 68  1  0
  9 10  1  0
  9 69  1  0
  9 70  1  0
 10 11  2  0
 10 18  1  0
 11 12  1  0
 11 19  1  0
 12 13  1  0
 12 71  1  0
 13 14  2  0
 13 18  1  0
 14 15  1  0
 14 72  1  0
 15 16  2  0
 15 73  1  0
 16 17  1  0
 16 74  1  0
 17 18  2  0
 17 75  1  0
 19 20  1  0
 19 21  1  0
 19 25  1  0
 20 76  1  0
 20 77  1  0
 21 22  2  0
 21 23  1  0
 23 24  1  0
 24 78  1  0
 24 79  1  0
 24 80  1  0
 25 26  2  0
 25 30  1  0
 26 27  1  0
 26 81  1  0
 27 28  2  0
 27 52  1  0
 28 29  1  0
 28 33  1  0
 29 30  2  0
 29 82  1  0
 30 31  1  0
 31 32  1  0
 32 83  1  0
 32 84  1  0
 32 85  1  0
 33 34  1  0
 33 35  1  0
 34 86  1  0
 34 87  1  0
 34 88  1  0
 35 36  1  0
 35 89  1  0
 35 52  1  0
 36 37  1  0
 36 38  1  0
 36 54  1  0
 37 90  1  0
 38 39  1  0
 38 43  1  0
 38 91  1  0
 39 40  1  0
 40 41  2  0
 40 42  1  0
 42 92  1  0
 42 93  1  0
 42 94  1  0
 43 44  1  0
 43 46  1  0
 43 53  1  0
 44 45  1  0
 44 95  1  0
 44 96  1  0
 45 97  1  0
 45 98  1  0
 45 99  1  0
 46 47  2  0
 46100  1  0
 47 48  1  0
 47101  1  0
 48 49  1  0
 48102  1  0
 48103  1  0
 49 50  1  0
 49 53  1  0
 49113  1  0
 50 51  1  0
 50104  1  0
 50105  1  0
 51 52  1  0
 51106  1  0
 51107  1  0
 52 53  1  0
 53108  1  0
 54 55  2  0
 54 56  1  0
 56 57  1  0
 57109  1  0
 57110  1  0
 57111  1  0
M  CHG  2   7   1  49   1
M  END
> <Mol2_MolInfo_Name>
14460

> <Mol2_MolInfo_Type>
SMALL

> <Mol2_MolInfo_Charge>
USER_CHARGES

> <Mol2_Substructures>
     1 ****        1 GROUP             0       ****    0 ROOT    

> <Name>
14460

$$$$
14460
  SciTegic06232017503D

113121  0  0  0  0            999 V2000
   -4.3852   -1.0357    3.7495 C   0  0
   -4.6363    0.3584    3.1591 C   0  0
   -4.1189    0.5316    1.7381 C   0  0
   -3.0668    1.3312    1.4577 C   0  0
   -2.4879    1.5708    0.0620 C   0  0  2  0  0  0
   -3.3027    0.8558   -1.0554 C   0  0
   -3.9403   -0.4752   -0.5688 N   0  3  2  0  0  0
   -4.8844   -0.1826    0.6221 C   0  0
   -2.9469   -1.6175   -0.2242 C   0  0
   -1.7491   -1.5710   -1.1488 C   0  0
   -0.5831   -0.8134   -0.9943 C   0  0
    0.1448   -0.9632   -2.1580 N   0  0
   -0.4322   -1.8658   -3.0160 C   0  0
   -0.0190   -2.3483   -4.2627 C   0  0
   -0.8595   -3.2647   -4.8952 C   0  0
   -2.0568   -3.6796   -4.3184 C   0  0
   -2.4635   -3.1934   -3.0769 C   0  0
   -1.6441   -2.2742   -2.3992 C   0  0
   -0.0963    0.1485    0.1293 C   0  0  1  0  0  0
   -0.9235    1.4907   -0.0146 C   0  0
   -0.2939   -0.4333    1.5713 C   0  0
   -0.3747    0.3027    2.5589 O   0  0
   -0.2964   -1.7908    1.6267 O   0  0
   -0.3854   -2.4698    2.8701 C   0  0
    1.4773    0.3146    0.0450 C   0  0
    2.2438   -0.8721    0.0503 C   0  0
    3.6322   -0.8663    0.0013 C   0  0
    4.3093    0.3509   -0.0498 C   0  0
    3.5909    1.5390   -0.1176 C   0  0
    2.1826    1.5480   -0.0598 C   0  0
    1.4843    2.7398   -0.1185 O   0  0
    2.1630    3.9878   -0.2293 C   0  0
    5.6829    0.0768   -0.1358 N   0  0
    6.6803    1.0051    0.3902 C   0  0
    5.8099   -1.2481    0.4793 C   0  0  2  0  0  0
    7.1286   -2.1062    0.6205 C   0  0  1  0  0  0
    7.8500   -1.5527    1.7163 O   0  0
    6.8182   -3.6222    1.0142 C   0  0  2  0  0  0
    6.9852   -4.5208   -0.1028 O   0  0
    7.8054   -5.5993   -0.0689 C   0  0
    8.4872   -5.9727    0.8857 O   0  0
    7.8071   -6.3574   -1.3892 C   0  0
    5.4064   -3.8698    1.7001 C   0  0  2  0  0  0
    5.3195   -3.2358    3.1332 C   0  0
    6.4279   -3.6004    4.1446 C   0  0
    5.1293   -5.3796    1.9491 C   0  0
    4.2005   -6.1253    1.3070 C   0  0
    3.3381   -5.6091    0.1621 C   0  0
    4.0998   -4.3979   -0.3883 N   0  3  1  0  0  0
    3.6600   -3.6572   -1.6404 C   0  0
    4.6455   -2.4986   -1.5661 C   0  0
    4.6115   -2.0235   -0.0896 C   0  0  2  0  0  0
    4.2940   -3.3272    0.7123 C   0  0  2  0  0  0
    8.0993   -1.9842   -0.5976 C   0  0
    7.7566   -1.4644   -1.6628 O   0  0
    9.3218   -2.5275   -0.3636 O   0  0
   10.3206   -2.5289   -1.3727 C   0  0
   -4.7654   -1.0982    4.7695 H   0  0
   -3.3195   -1.2602    3.7818 H   0  0
   -4.8756   -1.8168    3.1685 H   0  0
   -5.7055    0.5746    3.1663 H   0  0
   -4.1792    1.1027    3.8137 H   0  0
   -2.5878    1.8329    2.2867 H   0  0
   -2.6862    2.6310   -0.1059 H   0  0
   -4.1642    1.4583   -1.3491 H   0  0
   -2.7377    0.6707   -1.9690 H   0  0
   -5.3195   -1.1359    0.9250 H   0  0
   -5.6707    0.4641    0.2299 H   0  0
   -2.6932   -1.5017    0.8261 H   0  0
   -3.5373   -2.5288   -0.3256 H   0  0
    1.0160   -0.4723   -2.2998 H   0  0
    0.9041   -2.0290   -4.7241 H   0  0
   -0.5772   -3.6600   -5.8604 H   0  0
   -2.6818   -4.3872   -4.8437 H   0  0
   -3.3979   -3.5231   -2.6475 H   0  0
   -0.6512    1.9389   -0.9719 H   0  0
   -0.5837    2.1931    0.7476 H   0  0
   -0.3665   -3.5468    2.7044 H   0  0
   -1.3118   -2.2223    3.3881 H   0  0
    0.4539   -2.2115    3.5175 H   0  0
    1.7409   -1.8269    0.0813 H   0  0
    4.1471    2.4586   -0.2081 H   0  0
    1.4288    4.7930   -0.2510 H   0  0
    2.7428    4.0473   -1.1515 H   0  0
    2.8197    4.1656    0.6236 H   0  0
    6.5338    1.9943   -0.0443 H   0  0
    7.6937    0.6940    0.1399 H   0  0
    6.6014    1.1017    1.4742 H   0  0
    5.5618   -1.0192    1.5157 H   0  0
    7.9898   -0.6175    1.5496 H   0  0
    7.5788   -3.9201    1.7375 H   0  0
    8.0390   -5.6831   -2.2139 H   0  0
    6.8301   -6.8062   -1.5686 H   0  0
    8.5534   -7.1519   -1.3753 H   0  0
    5.2742   -2.1536    3.0991 H   0  0
    4.3605   -3.5079    3.5787 H   0  0
    6.2368   -3.1179    5.1036 H   0  0
    7.4109   -3.2661    3.8156 H   0  0
    6.4852   -4.6706    4.3369 H   0  0
    5.7134   -5.8988    2.6943 H   0  0
    4.1066   -7.1628    1.5930 H   0  0
    3.2702   -6.3265   -0.6562 H   0  0
    2.3402   -5.3024    0.4792 H   0  0
    3.7855   -4.3297   -2.4896 H   0  0
    2.6057   -3.4049   -1.5165 H   0  0
    5.6262   -2.8970   -1.8220 H   0  0
    4.4422   -1.7091   -2.2917 H   0  0
    3.3235   -3.2393    1.2058 H   0  0
   11.2230   -3.0129   -0.9988 H   0  0
   10.5783   -1.5115   -1.6704 H   0  0
    9.9841   -3.0751   -2.2552 H   0  0
   -4.5091   -0.8098   -1.3339 H   0  0
    5.0228   -4.7398   -0.6182 H   0  0
  1  2  1  0
  1 58  1  0
  1 59  1  0
  1 60  1  0
  2  3  1  0
  2 61  1  0
  2 62  1  0
  3  4  2  0
  3  8  1  0
  4  5  1  0
  4 63  1  0
  5  6  1  0
  5 64  1  0
  5 20  1  0
  6  7  1  0
  6 65  1  0
  6 66  1  0
  7  8  1  0
  7  9  1  0
  7112  1  0
  8 67  1  0
  8 68  1  0
  9 10  1  0
  9 69  1  0
  9 70  1  0
 10 11  2  0
 10 18  1  0
 11 12  1  0
 11 19  1  0
 12 13  1  0
 12 71  1  0
 13 14  2  0
 13 18  1  0
 14 15  1  0
 14 72  1  0
 15 16  2  0
 15 73  1  0
 16 17  1  0
 16 74  1  0
 17 18  2  0
 17 75  1  0
 19 20  1  0
 19 21  1  0
 19 25  1  0
 20 76  1  0
 20 77  1  0
 21 22  2  0
 21 23  1  0
 23 24  1  0
 24 78  1  0
 24 79  1  0
 24 80  1  0
 25 26  2  0
 25 30  1  0
 26 27  1  0
 26 81  1  0
 27 28  2  0
 27 52  1  0
 28 29  1  0
 28 33  1  0
 29 30  2  0
 29 82  1  0
 30 31  1  0
 31 32  1  0
 32 83  1  0
 32 84  1  0
 32 85  1  0
 33 34  1  0
 33 35  1  0
 34 86  1  0
 34 87  1  0
 34 88  1  0
 35 36  1  0
 35 89  1  0
 35 52  1  0
 36 37  1  0
 36 38  1  0
 36 54  1  0
 37 90  1  0
 38 39  1  0
 38 43  1  0
 38 91  1  0
 39 40  1  0
 40 41  2  0
 40 42  1  0
 42 92  1  0
 42 93  1  0
 42 94  1  0
 43 44  1  0
 43 46  1  0
 43 53  1  0
 44 45  1  0
 44 95  1  0
 44 96  1  0
 45 97  1  0
 45 98  1  0
 45 99  1  0
 46 47  2  0
 46100  1  0
 47 48  1  0
 47101  1  0
 48 49  1  0
 48102  1  0
 48103  1  0
 49 50  1  0
 49 53  1  0
 49113  1  0
 50 51  1  0
 50104  1  0
 50105  1  0
 51 52  1  0
 51106  1  0
 51107  1  0
 52 53  1  0
 53108  1  0
 54 55  2  0
 54 56  1  0
 56 57  1  0
 57109  1  0
 57110  1  0
 57111  1  0
M  CHG  2   7   1  49   1
M  END
> <Mol2_MolInfo_Name>
14460

> <Mol2_MolInfo_Type>
SMALL

> <Mol2_MolInfo_Charge>
USER_CHARGES

> <Mol2_Substructures>
     1 ****        1 GROUP             0       ****    0 ROOT    

> <Name>
14460

$$$$
14460
  SciTegic06232017503D

112120  0  0  0  0            999 V2000
   -2.3303    5.9272    3.6312 C   0  0
   -2.6403    4.9213    2.5132 C   0  0
   -1.7073    3.7182    2.4841 C   0  0
   -0.8786    3.4931    1.4387 C   0  0
    0.0537    2.2898    1.2956 C   0  0  1  0  0  0
    0.2438    1.6192    2.6852 C   0  0
   -1.1073    1.4095    3.4041 N   0  3  1  0  0  0
   -1.7493    2.7877    3.7032 C   0  0
   -2.0859    0.4627    2.6648 C   0  0
   -1.3829   -0.8029    2.1831 C   0  0
   -0.5397   -1.0045    1.0711 C   0  0
   -0.2067   -2.3467    1.0604 N   0  0
   -0.7478   -3.0259    2.1206 C   0  0
   -0.6488   -4.3690    2.4995 C   0  0
   -1.3309   -4.7511    3.6543 C   0  0
   -2.0775   -3.8416    4.3976 C   0  0
   -2.1726   -2.5054    4.0127 C   0  0
   -1.5005   -2.0726    2.8554 C   0  0
    0.0361   -0.0723   -0.0412 C   0  0  2  0  0  0
   -0.4825    1.4042    0.1267 C   0  0
   -0.5004   -0.6711   -1.3922 C   0  0
    0.1609   -1.4799   -2.0523 O   0  0
   -1.7428   -0.2444   -1.7305 O   0  0
   -2.3652   -0.6945   -2.9247 C   0  0
    1.6109   -0.0408   -0.1002 C   0  0
    2.3704   -0.6088    0.9392 C   0  0
    3.7629   -0.6354    0.9127 C   0  0
    4.4352   -0.0805   -0.1659 C   0  0
    3.7220    0.5643   -1.1727 C   0  0
    2.3155    0.5920   -1.1584 C   0  0
    1.5842    1.2292   -2.1470 O   0  0
    2.2451    1.8685   -3.2340 C   0  0
    5.8045   -0.1685    0.0871 N   0  0
    6.7936   -0.2200   -0.9882 C   0  0
    6.0551   -1.1370    1.1713 C   0  0  1  0  0  0
    7.2839   -0.9228    2.1422 C   0  0  2  0  0  0
    7.2937   -2.0004    3.0735 O   0  0
    7.1409    0.4359    2.9159 C   0  0  2  0  0  0
    8.2106    0.5737    3.8726 O   0  0
    8.9189    1.7204    4.0154 C   0  0
    8.7528    2.7657    3.3858 O   0  0
    9.9986    1.6007    5.0823 C   0  0
    5.6941    0.7863    3.4864 C   0  0  2  0  0  0
    5.2551    2.1128    2.7805 C   0  0
    3.8474    2.6484    3.1036 C   0  0
    5.7458    1.1242    4.9952 C   0  0
    5.1502    0.4059    5.9648 C   0  0
    4.3507   -0.8463    5.6673 C   0  0
    4.6686   -1.4057    4.3573 N   0  0  1  0  0  0
    3.8714   -2.4998    3.8426 C   0  0
    4.3321   -2.6406    2.3954 C   0  0
    4.7142   -1.2028    1.9469 C   0  0  2  0  0  0
    4.6615   -0.4071    3.2854 C   0  0  2  0  0  0
    8.6360   -1.0684    1.3702 C   0  0
    9.0741   -2.1749    1.0362 O   0  0
    9.2581    0.1075    1.1083 O   0  0
   10.5007    0.1367    0.4220 C   0  0
   -3.0132    6.7761    3.5889 H   0  0
   -1.3150    6.3155    3.5429 H   0  0
   -2.4318    5.4742    4.6179 H   0  0
   -3.6632    4.5582    2.6207 H   0  0
   -2.6103    5.4415    1.5544 H   0  0
   -0.9041    4.1974    0.6191 H   0  0
    1.0363    2.6608    0.9999 H   0  0
    0.7710    0.6708    2.6785 H   0  0
    0.8048    2.2715    3.3566 H   0  0
   -1.1346    3.2120    4.4981 H   0  0
   -2.7556    2.6090    4.0852 H   0  0
   -2.8419    0.2517    3.4218 H   0  0
   -2.5844    1.0404    1.8913 H   0  0
    0.3870   -2.7346    0.3411 H   0  0
   -0.0724   -5.0840    1.9307 H   0  0
   -1.2796   -5.7799    3.9807 H   0  0
   -2.5921   -4.1776    5.2860 H   0  0
   -2.7576   -1.8171    4.6043 H   0  0
   -1.5698    1.3940    0.1411 H   0  0
   -0.2833    1.9648   -0.7874 H   0  0
   -3.3508   -0.2396   -3.0220 H   0  0
   -2.4899   -1.7782   -2.9170 H   0  0
   -1.7757   -0.4181   -3.8003 H   0  0
    1.8913   -1.0534    1.7962 H   0  0
    4.2728    1.0503   -1.9625 H   0  0
    1.4991    2.2957   -3.9038 H   0  0
    2.8407    1.1613   -3.8132 H   0  0
    2.8842    2.6831   -2.8903 H   0  0
    6.3805    0.1676   -1.9194 H   0  0
    7.1351   -1.2371   -1.1857 H   0  0
    7.6522    0.4056   -0.7547 H   0  0
    6.1846   -2.1029    0.6753 H   0  0
    6.4948   -1.9476    3.6059 H   0  0
    7.3508    1.1836    2.1488 H   0  0
    9.5491    1.3882    6.0522 H   0  0
   10.5671    2.5277    5.1611 H   0  0
   10.6885    0.7940    4.8340 H   0  0
    5.9744    2.9017    3.0083 H   0  0
    5.3092    1.9899    1.6990 H   0  0
    3.6993    3.6311    2.6554 H   0  0
    3.6818    2.7506    4.1761 H   0  0
    3.0748    1.9984    2.6976 H   0  0
    6.2943    2.0005    5.3099 H   0  0
    5.2381    0.7464    6.9860 H   0  0
    4.5883   -1.5840    6.4344 H   0  0
    3.2934   -0.5978    5.7706 H   0  0
    4.0642   -3.3890    4.4441 H   0  0
    2.8026   -2.3023    3.9451 H   0  0
    5.1727   -3.3351    2.3733 H   0  0
    3.5352   -3.0830    1.7960 H   0  0
    3.6669    0.0335    3.3717 H   0  0
   10.8350    1.1678    0.3075 H   0  0
   10.4101   -0.3038   -0.5720 H   0  0
   11.2664   -0.4090    0.9753 H   0  0
   -0.8937    0.9770    4.2917 H   0  0
  1  2  1  0
  1 58  1  0
  1 59  1  0
  1 60  1  0
  2  3  1  0
  2 61  1  0
  2 62  1  0
  3  4  2  0
  3  8  1  0
  4  5  1  0
  4 63  1  0
  5  6  1  0
  5 64  1  0
  5 20  1  0
  6  7  1  0
  6 65  1  0
  6 66  1  0
  7  8  1  0
  7  9  1  0
  7112  1  0
  8 67  1  0
  8 68  1  0
  9 10  1  0
  9 69  1  0
  9 70  1  0
 10 11  2  0
 10 18  1  0
 11 12  1  0
 11 19  1  0
 12 13  1  0
 12 71  1  0
 13 14  2  0
 13 18  1  0
 14 15  1  0
 14 72  1  0
 15 16  2  0
 15 73  1  0
 16 17  1  0
 16 74  1  0
 17 18  2  0
 17 75  1  0
 19 20  1  0
 19 21  1  0
 19 25  1  0
 20 76  1  0
 20 77  1  0
 21 22  2  0
 21 23  1  0
 23 24  1  0
 24 78  1  0
 24 79  1  0
 24 80  1  0
 25 26  2  0
 25 30  1  0
 26 27  1  0
 26 81  1  0
 27 28  2  0
 27 52  1  0
 28 29  1  0
 28 33  1  0
 29 30  2  0
 29 82  1  0
 30 31  1  0
 31 32  1  0
 32 83  1  0
 32 84  1  0
 32 85  1  0
 33 34  1  0
 33 35  1  0
 34 86  1  0
 34 87  1  0
 34 88  1  0
 35 36  1  0
 35 89  1  0
 35 52  1  0
 36 37  1  0
 36 38  1  0
 36 54  1  0
 37 90  1  0
 38 39  1  0
 38 43  1  0
 38 91  1  0
 39 40  1  0
 40 41  2  0
 40 42  1  0
 42 92  1  0
 42 93  1  0
 42 94  1  0
 43 44  1  0
 43 46  1  0
 43 53  1  0
 44 45  1  0
 44 95  1  0
 44 96  1  0
 45 97  1  0
 45 98  1  0
 45 99  1  0
 46 47  2  0
 46100  1  0
 47 48  1  0
 47101  1  0
 48 49  1  0
 48102  1  0
 48103  1  0
 49 50  1  0
 49 53  1  0
 50 51  1  0
 50104  1  0
 50105  1  0
 51 52  1  0
 51106  1  0
 51107  1  0
 52 53  1  0
 53108  1  0
 54 55  2  0
 54 56  1  0
 56 57  1  0
 57109  1  0
 57110  1  0
 57111  1  0
M  CHG  1   7   1
M  END
> <Mol2_MolInfo_Name>
14460

> <Mol2_MolInfo_Type>
SMALL

> <Mol2_MolInfo_Charge>
USER_CHARGES

> <Mol2_Substructures>
     1 ****        1 GROUP             0       ****    0 ROOT    

> <Name>
14460

$$$$
14460
  SciTegic06232017503D

112120  0  0  0  0            999 V2000
    2.7861    5.2498    0.8124 C   0  0
    2.8598    4.0064    1.7158 C   0  0
    1.6140    3.1265    1.8021 C   0  0
    0.5686    3.2116    0.9322 C   0  0
   -0.7142    2.3618    1.0236 C   0  0  2  0  0  0
   -0.8486    1.7836    2.4357 C   0  0
    0.5049    1.0892    2.6364 N   0  3  1  0  0  0
    1.6067    2.1096    2.9583 C   0  0
    0.4389   -0.2669    3.3300 C   0  0
   -0.4326   -1.1348    2.4267 C   0  0
   -0.6364   -1.0517    1.0230 C   0  0
   -1.6146   -1.9866    0.7333 N   0  0
   -1.9852   -2.7270    1.8275 C   0  0
   -2.8925   -3.7840    1.9605 C   0  0
   -3.0459   -4.3287    3.2355 C   0  0
   -2.3352   -3.8427    4.3295 C   0  0
   -1.4365   -2.7863    4.1901 C   0  0
   -1.2450   -2.2120    2.9213 C   0  0
   -0.0371   -0.1201   -0.1121 C   0  0  2  0  0  0
   -0.8431    1.2731   -0.1043 C   0  0
   -0.1863   -0.8364   -1.5105 C   0  0
    0.1179   -2.0265   -1.6499 O   0  0
   -0.6553   -0.0556   -2.5154 O   0  0
   -0.8113   -0.5729   -3.8288 C   0  0
    1.5310    0.0159   -0.0375 C   0  0
    2.2804   -0.9439    0.6768 C   0  0
    3.6749   -0.9296    0.7149 C   0  0
    4.3537    0.0654    0.0195 C   0  0
    3.6566    0.9962   -0.7410 C   0  0
    2.2518    0.9774   -0.7935 C   0  0
    1.5444    1.8400   -1.6107 O   0  0
    2.2281    2.7218   -2.4950 C   0  0
    5.7103   -0.2442    0.0780 N   0  0
    6.8210    0.6384   -0.2661 C   0  0
    5.9679   -1.1360    1.2152 C   0  0  1  0  0  0
    6.5572   -0.5759    2.5791 C   0  0  2  0  0  0
    7.9657   -0.4597    2.3723 O   0  0
    6.3368   -1.5875    3.7612 C   0  0  2  0  0  0
    7.1065   -2.7771    3.4920 O   0  0
    8.0153   -3.2753    4.3634 C   0  0
    8.3103   -2.8054    5.4627 O   0  0
    8.6725   -4.5463    3.8423 C   0  0
    4.8476   -2.0011    4.0527 C   0  0  2  0  0  0
    3.9859   -0.8514    4.6677 C   0  0
    4.5029   -0.1553    5.9455 C   0  0
    4.8029   -3.0954    5.1467 C   0  0
    4.2741   -4.3201    4.9800 C   0  0
    3.7135   -4.7714    3.6506 C   0  0
    4.2979   -4.0108    2.5540 N   0  0  1  0  0  0
    3.9010   -4.2801    1.1931 C   0  0
    4.6820   -3.2253    0.4327 C   0  0
    4.6410   -1.9470    1.3199 C   0  0  2  0  0  0
    4.2075   -2.5537    2.7088 C   0  0  2  0  0  0
    6.1134    0.8641    2.9965 C   0  0
    5.1371    1.4278    2.4998 O   0  0
    6.8989    1.4180    3.9586 O   0  0
    6.6317    2.7228    4.4515 C   0  0
    3.7108    5.8247    0.8721 H   0  0
    1.9705    5.9088    1.1118 H   0  0
    2.6389    4.9834   -0.2336 H   0  0
    3.6910    3.3798    1.3924 H   0  0
    3.1047    4.3369    2.7261 H   0  0
    0.6235    3.9261    0.1249 H   0  0
   -1.5426    3.0597    0.8910 H   0  0
   -0.9406    2.5514    3.2066 H   0  0
   -1.6811    1.0879    2.5431 H   0  0
    2.5365    1.5475    3.0108 H   0  0
    1.3742    2.5515    3.9281 H   0  0
    1.4660   -0.6149    3.3997 H   0  0
    0.0368   -0.0636    4.3236 H   0  0
   -1.9573   -2.1088   -0.2087 H   0  0
   -3.4515   -4.1686    1.1200 H   0  0
   -3.7350   -5.1484    3.3785 H   0  0
   -2.4846   -4.2906    5.3013 H   0  0
   -0.8961   -2.4194    5.0503 H   0  0
   -1.9006    1.0020   -0.1261 H   0  0
   -0.7271    1.8215   -1.0372 H   0  0
   -1.2050    0.2017   -4.4871 H   0  0
   -1.5062   -1.4141   -3.8398 H   0  0
    0.1452   -0.9080   -4.2324 H   0  0
    1.7821   -1.7640    1.1671 H   0  0
    4.2225    1.7026   -1.3273 H   0  0
    1.4968    3.3001   -3.0591 H   0  0
    2.8374    2.1705   -3.2127 H   0  0
    2.8603    3.4272   -1.9557 H   0  0
    6.6207    1.1366   -1.2148 H   0  0
    7.7447    0.0706   -0.3838 H   0  0
    6.9820    1.4133    0.4817 H   0  0
    6.7312   -1.8272    0.8530 H   0  0
    8.3248   -1.3381    2.2267 H   0  0
    6.7464   -1.1373    4.6668 H   0  0
    9.3417   -4.3129    3.0145 H   0  0
    7.9161   -5.2490    3.4915 H   0  0
    9.2522   -5.0300    4.6286 H   0  0
    3.7757   -0.1033    3.9121 H   0  0
    2.9993   -1.2498    4.9103 H   0  0
    3.8504    0.6761    6.2135 H   0  0
    5.5054    0.2492    5.8293 H   0  0
    4.5188   -0.8319    6.7993 H   0  0
    5.2094   -2.8744    6.1227 H   0  0
    4.2651   -4.9995    5.8195 H   0  0
    3.9623   -5.8250    3.5196 H   0  0
    2.6267   -4.6835    3.6879 H   0  0
    4.1810   -5.3020    0.9342 H   0  0
    2.8174   -4.2254    1.0732 H   0  0
    5.6915   -3.6205    0.3040 H   0  0
    4.2779   -3.0772   -0.5701 H   0  0
    3.1352   -2.3856    2.8254 H   0  0
    7.3663    2.9888    5.2114 H   0  0
    5.6404    2.7740    4.9039 H   0  0
    6.6864    3.4621    3.6511 H   0  0
    0.7417    0.7968    1.6979 H   0  0
  1  2  1  0
  1 58  1  0
  1 59  1  0
  1 60  1  0
  2  3  1  0
  2 61  1  0
  2 62  1  0
  3  4  2  0
  3  8  1  0
  4  5  1  0
  4 63  1  0
  5  6  1  0
  5 64  1  0
  5 20  1  0
  6  7  1  0
  6 65  1  0
  6 66  1  0
  7  8  1  0
  7  9  1  0
  7112  1  0
  8 67  1  0
  8 68  1  0
  9 10  1  0
  9 69  1  0
  9 70  1  0
 10 11  2  0
 10 18  1  0
 11 12  1  0
 11 19  1  0
 12 13  1  0
 12 71  1  0
 13 14  2  0
 13 18  1  0
 14 15  1  0
 14 72  1  0
 15 16  2  0
 15 73  1  0
 16 17  1  0
 16 74  1  0
 17 18  2  0
 17 75  1  0
 19 20  1  0
 19 21  1  0
 19 25  1  0
 20 76  1  0
 20 77  1  0
 21 22  2  0
 21 23  1  0
 23 24  1  0
 24 78  1  0
 24 79  1  0
 24 80  1  0
 25 26  2  0
 25 30  1  0
 26 27  1  0
 26 81  1  0
 27 28  2  0
 27 52  1  0
 28 29  1  0
 28 33  1  0
 29 30  2  0
 29 82  1  0
 30 31  1  0
 31 32  1  0
 32 83  1  0
 32 84  1  0
 32 85  1  0
 33 34  1  0
 33 35  1  0
 34 86  1  0
 34 87  1  0
 34 88  1  0
 35 36  1  0
 35 89  1  0
 35 52  1  0
 36 37  1  0
 36 38  1  0
 36 54  1  0
 37 90  1  0
 38 39  1  0
 38 43  1  0
 38 91  1  0
 39 40  1  0
 40 41  2  0
 40 42  1  0
 42 92  1  0
 42 93  1  0
 42 94  1  0
 43 44  1  0
 43 46  1  0
 43 53  1  0
 44 45  1  0
 44 95  1  0
 44 96  1  0
 45 97  1  0
 45 98  1  0
 45 99  1  0
 46 47  2  0
 46100  1  0
 47 48  1  0
 47101  1  0
 48 49  1  0
 48102  1  0
 48103  1  0
 49 50  1  0
 49 53  1  0
 50 51  1  0
 50104  1  0
 50105  1  0
 51 52  1  0
 51106  1  0
 51107  1  0
 52 53  1  0
 53108  1  0
 54 55  2  0
 54 56  1  0
 56 57  1  0
 57109  1  0
 57110  1  0
 57111  1  0
M  CHG  1   7   1
M  END
> <Mol2_MolInfo_Name>
14460

> <Mol2_MolInfo_Type>
SMALL

> <Mol2_MolInfo_Charge>
USER_CHARGES

> <Mol2_Substructures>
     1 ****        1 GROUP             0       ****    0 ROOT    

> <Name>
14460

$$$$
14460
  SciTegic06232017503D

112120  0  0  0  0            999 V2000
   -5.0929    2.0594   -3.5085 C   0  0
   -3.6109    1.7322   -3.2771 C   0  0
   -3.2840    1.3274   -1.8471 C   0  0
   -2.4696    2.0822   -1.0605 C   0  0
   -2.0925    1.7359    0.3957 C   0  0  1  0  0  0
   -3.0636    0.6818    0.9509 C   0  0
   -3.0404   -0.4098   -0.1297 N   0  3  2  0  0  0
   -3.8765   -0.0055   -1.3528 C   0  0
   -2.9848   -1.8537    0.3621 C   0  0
   -1.7284   -1.9356    1.2265 C   0  0
   -0.5265   -1.1801    1.1636 C   0  0
    0.1997   -1.5287    2.2858 N   0  0
   -0.3876   -2.5388    3.0037 C   0  0
    0.0330   -3.2145    4.1545 C   0  0
   -0.8162   -4.2023    4.6530 C   0  0
   -2.0289   -4.5026    4.0391 C   0  0
   -2.4417   -3.8240    2.8935 C   0  0
   -1.6142   -2.8249    2.3516 C   0  0
    0.0503   -0.0696    0.2049 C   0  0  2  0  0  0
   -0.5756    1.3570    0.5806 C   0  0
   -0.1935   -0.3529   -1.3149 C   0  0
   -0.6731   -1.4146   -1.7220 O   0  0
    0.1970    0.6722   -2.1156 O   0  0
    0.0921    0.5724   -3.5275 C   0  0
    1.6273   -0.0828    0.3059 C   0  0
    2.3346    1.0726    0.6901 C   0  0
    3.7274    1.1097    0.7219 C   0  0
    4.4447   -0.0410    0.4125 C   0  0
    3.7829   -1.2269    0.1189 C   0  0
    2.3800   -1.2595    0.0373 C   0  0
    1.6886   -2.4167   -0.2819 O   0  0
    2.3937   -3.6166   -0.5796 C   0  0
    5.7908    0.2497    0.6273 N   0  0
    6.9333   -0.5447    0.1856 C   0  0
    5.9803    1.6983    0.4790 C   0  0  1  0  0  0
    6.4438    2.3271   -0.9124 C   0  0  2  0  0  0
    7.8658    2.2069   -0.9231 O   0  0
    6.0791    3.8530   -1.0066 C   0  0  2  0  0  0
    6.8966    4.5946   -0.0782 O   0  0
    7.8245    5.4964   -0.4750 C   0  0
    8.1122    5.7915   -1.6353 O   0  0
    8.5210    6.1559    0.7075 C   0  0
    4.5689    4.2148   -0.7614 C   0  0  2  0  0  0
    3.6457    3.6716   -1.9032 C   0  0
    2.1814    4.1628   -1.9312 C   0  0
    4.4164    5.7509   -0.8031 C   0  0
    4.0849    6.5053    0.2598 C   0  0
    3.8432    5.9001    1.6281 C   0  0
    4.4586    4.5825    1.7688 N   0  0  1  0  0  0
    4.1590    3.8011    2.9478 C   0  0
    4.7602    2.4373    2.6376 C   0  0
    4.6584    2.2558    1.0932 C   0  0  2  0  0  0
    4.1560    3.6745    0.6595 C   0  0  2  0  0  0
    6.0149    1.6066   -2.2353 C   0  0
    5.1789    0.7020   -2.2707 O   0  0
    6.6351    2.1045   -3.3392 O   0  0
    6.3562    1.5802   -4.6290 C   0  0
   -5.2697    2.3452   -4.5458 H   0  0
   -5.4178    2.8881   -2.8783 H   0  0
   -5.7313    1.2024   -3.2914 H   0  0
   -3.3106    0.9197   -3.9400 H   0  0
   -3.0072    2.5932   -3.5695 H   0  0
   -2.0626    2.9914   -1.4798 H   0  0
   -2.2615    2.6494    0.9682 H   0  0
   -2.7730    0.2908    1.9259 H   0  0
   -4.0912    1.0444    1.0195 H   0  0
   -4.9163    0.0654   -1.0306 H   0  0
   -3.7604   -0.8058   -2.0847 H   0  0
   -3.9263   -2.0050    0.8916 H   0  0
   -2.9488   -2.4808   -0.5291 H   0  0
    1.0907   -1.0970    2.4848 H   0  0
    0.9701   -2.9881    4.6418 H   0  0
   -0.5275   -4.7473    5.5400 H   0  0
   -2.6603   -5.2721    4.4592 H   0  0
   -3.3874   -4.0690    2.4328 H   0  0
   -0.0372    2.1401    0.0447 H   0  0
   -0.3447    1.5317    1.6331 H   0  0
    0.4250    1.5019   -3.9889 H   0  0
   -0.9385    0.3901   -3.8339 H   0  0
    0.7154   -0.2383   -3.9075 H   0  0
    1.8181    1.9736    0.9697 H   0  0
    4.3706   -2.1140   -0.0589 H   0  0
    1.6773   -4.4013   -0.8226 H   0  0
    2.9797   -3.9586    0.2745 H   0  0
    3.0500   -3.4916   -1.4421 H   0  0
    6.7885   -1.5885    0.4648 H   0  0
    7.8510   -0.2019    0.6647 H   0  0
    7.0746   -0.5126   -0.8935 H   0  0
    6.7796    1.9552    1.1765 H   0  0
    8.2222    2.7594   -0.2235 H   0  0
    6.3284    4.2074   -2.0089 H   0  0
    9.0106    5.4045    1.3271 H   0  0
    7.7954    6.6921    1.3192 H   0  0
    9.2748    6.8654    0.3651 H   0  0
    4.0948    3.8832   -2.8751 H   0  0
    3.5770    2.5899   -1.8277 H   0  0
    1.6332    3.6745   -2.7375 H   0  0
    2.1123    5.2369   -2.1031 H   0  0
    1.6545    3.9354   -1.0053 H   0  0
    4.5857    6.2619   -1.7403 H   0  0
    3.9837    7.5721    0.1256 H   0  0
    4.2784    6.5700    2.3700 H   0  0
    2.7657    5.8788    1.7977 H   0  0
    4.6118    4.2843    3.8145 H   0  0
    3.0875    3.7735    3.1548 H   0  0
    5.7888    2.4452    3.0010 H   0  0
    4.2284    1.6651    3.1957 H   0  0
    3.0666    3.6618    0.6494 H   0  0
    6.9510    2.1036   -5.3775 H   0  0
    5.3027    1.7062   -4.8826 H   0  0
    6.6020    0.5186   -4.6811 H   0  0
   -2.0979   -0.3301   -0.4852 H   0  0
  1  2  1  0
  1 58  1  0
  1 59  1  0
  1 60  1  0
  2  3  1  0
  2 61  1  0
  2 62  1  0
  3  4  2  0
  3  8  1  0
  4  5  1  0
  4 63  1  0
  5  6  1  0
  5 64  1  0
  5 20  1  0
  6  7  1  0
  6 65  1  0
  6 66  1  0
  7  8  1  0
  7  9  1  0
  7112  1  0
  8 67  1  0
  8 68  1  0
  9 10  1  0
  9 69  1  0
  9 70  1  0
 10 11  2  0
 10 18  1  0
 11 12  1  0
 11 19  1  0
 12 13  1  0
 12 71  1  0
 13 14  2  0
 13 18  1  0
 14 15  1  0
 14 72  1  0
 15 16  2  0
 15 73  1  0
 16 17  1  0
 16 74  1  0
 17 18  2  0
 17 75  1  0
 19 20  1  0
 19 21  1  0
 19 25  1  0
 20 76  1  0
 20 77  1  0
 21 22  2  0
 21 23  1  0
 23 24  1  0
 24 78  1  0
 24 79  1  0
 24 80  1  0
 25 26  2  0
 25 30  1  0
 26 27  1  0
 26 81  1  0
 27 28  2  0
 27 52  1  0
 28 29  1  0
 28 33  1  0
 29 30  2  0
 29 82  1  0
 30 31  1  0
 31 32  1  0
 32 83  1  0
 32 84  1  0
 32 85  1  0
 33 34  1  0
 33 35  1  0
 34 86  1  0
 34 87  1  0
 34 88  1  0
 35 36  1  0
 35 89  1  0
 35 52  1  0
 36 37  1  0
 36 38  1  0
 36 54  1  0
 37 90  1  0
 38 39  1  0
 38 43  1  0
 38 91  1  0
 39 40  1  0
 40 41  2  0
 40 42  1  0
 42 92  1  0
 42 93  1  0
 42 94  1  0
 43 44  1  0
 43 46  1  0
 43 53  1  0
 44 45  1  0
 44 95  1  0
 44 96  1  0
 45 97  1  0
 45 98  1  0
 45 99  1  0
 46 47  2  0
 46100  1  0
 47 48  1  0
 47101  1  0
 48 49  1  0
 48102  1  0
 48103  1  0
 49 50  1  0
 49 53  1  0
 50 51  1  0
 50104  1  0
 50105  1  0
 51 52  1  0
 51106  1  0
 51107  1  0
 52 53  1  0
 53108  1  0
 54 55  2  0
 54 56  1  0
 56 57  1  0
 57109  1  0
 57110  1  0
 57111  1  0
M  CHG  1   7   1
M  END
> <Mol2_MolInfo_Name>
14460

> <Mol2_MolInfo_Type>
SMALL

> <Mol2_MolInfo_Charge>
USER_CHARGES

> <Mol2_Substructures>
     1 ****        1 GROUP             0       ****    0 ROOT    

> <Name>
14460

$$$$
14460
  SciTegic06232017503D

112120  0  0  0  0            999 V2000
   -4.2805    5.6632    1.0029 C   0  0
   -2.8681    5.0623    1.0488 C   0  0
   -2.8238    3.5565    0.8253 C   0  0
   -2.1866    3.0172   -0.2389 C   0  0
   -2.0435    1.5191   -0.5171 C   0  0  2  0  0  0
   -3.0487    0.7188    0.3556 C   0  0
   -3.0402    1.2204    1.8191 N   0  3  2  0  0  0
   -3.5434    2.6845    1.8605 C   0  0
   -1.6718    1.0689    2.5285 C   0  0
   -1.1236   -0.3352    2.3324 C   0  0
   -0.4729   -0.8962    1.2170 C   0  0
   -0.1528   -2.1966    1.5616 N   0  0
   -0.5638   -2.5202    2.8285 C   0  0
   -0.4451   -3.7065    3.5608 C   0  0
   -0.9751   -3.7077    4.8509 C   0  0
   -1.5947   -2.5832    5.3881 C   0  0
   -1.7090   -1.4052    4.6521 C   0  0
   -1.1878   -1.3564    3.3467 C   0  0
   -0.0389   -0.3435   -0.1815 C   0  0  2  0  0  0
   -0.5285    1.1378   -0.4136 C   0  0
   -0.5973   -1.3155   -1.2815 C   0  0
   -1.5116   -0.9974   -2.0458 O   0  0
    0.0533   -2.5070   -1.3251 O   0  0
   -0.2983   -3.4920   -2.2854 C   0  0
    1.5326   -0.2655   -0.2944 C   0  0
    2.3030   -0.2523    0.8852 C   0  0
    3.6847   -0.0879    0.8707 C   0  0
    4.3328    0.0732   -0.3481 C   0  0
    3.6175    0.0291   -1.5391 C   0  0
    2.2155   -0.0905   -1.5301 C   0  0
    1.4720   -0.0191   -2.6968 O   0  0
    2.1157    0.1660   -3.9532 C   0  0
    5.6985    0.1349   -0.0757 N   0  0
    6.7453    0.5813   -0.9898 C   0  0
    5.8731    0.6091    1.3044 C   0  0  1  0  0  0
    6.1039    2.1564    1.6201 C   0  0  2  0  0  0
    7.5027    2.3690    1.4303 O   0  0
    5.7478    2.4991    3.1128 C   0  0  2  0  0  0
    6.7208    1.8934    3.9877 O   0  0
    7.6088    2.6170    4.7087 C   0  0
    7.7188    3.8434    4.7185 O   0  0
    8.5158    1.7333    5.5542 C   0  0
    4.3062    2.0913    3.5887 C   0  0  2  0  0  0
    3.1965    2.9361    2.8777 C   0  0
    1.7566    2.8253    3.4261 C   0  0
    4.1729    2.4159    5.0924 C   0  0
    4.0339    1.4870    6.0554 C   0  0
    4.0132    0.0047    5.7414 C   0  0
    4.6251   -0.2978    4.4495 N   0  0  1  0  0  0
    4.5069   -1.6411    3.9276 C   0  0
    5.0209   -1.5214    2.4996 C   0  0
    4.6736   -0.0774    2.0277 C   0  0  2  0  0  0
    4.1284    0.5439    3.3579 C   0  0  2  0  0  0
    5.4496    3.2154    0.6698 C   0  0
    4.6024    2.9316   -0.1784 O   0  0
    5.8927    4.4814    0.9003 O   0  0
    5.3952    5.5755    0.1437 C   0  0
   -4.2480    6.7425    1.1546 H   0  0
   -4.9206    5.2431    1.7792 H   0  0
   -4.7572    5.4798    0.0393 H   0  0
   -2.2459    5.5695    0.3095 H   0  0
   -2.4126    5.2765    2.0164 H   0  0
   -1.7054    3.6950   -0.9298 H   0  0
   -2.3532    1.3648   -1.5513 H   0  0
   -4.0728    0.8825    0.0152 H   0  0
   -2.9008   -0.3597    0.3530 H   0  0
   -3.4327    3.0410    2.8858 H   0  0
   -4.6042    2.6253    1.6126 H   0  0
   -1.0245    1.8669    2.1755 H   0  0
   -1.8981    1.2879    3.5726 H   0  0
    0.3355   -2.8035    0.9185 H   0  0
    0.0338   -4.5857    3.1553 H   0  0
   -0.9032   -4.6042    5.4494 H   0  0
   -1.9925   -2.6249    6.3917 H   0  0
   -2.1928   -0.5442    5.0890 H   0  0
   -0.0826    1.5083   -1.3386 H   0  0
   -0.0374    1.7584    0.3354 H   0  0
    0.3254   -4.3760   -2.1535 H   0  0
   -0.1486   -3.1187   -3.2996 H   0  0
   -1.3413   -3.7925   -2.1761 H   0  0
    1.8291   -0.3530    1.8468 H   0  0
    4.1611    0.1296   -2.4654 H   0  0
    1.3621    0.1969   -4.7400 H   0  0
    2.7948   -0.6569   -4.1805 H   0  0
    2.6653    1.1079   -3.9864 H   0  0
    6.6381    0.0757   -1.9495 H   0  0
    7.7327    0.3348   -0.5975 H   0  0
    6.7063    1.6528   -1.1787 H   0  0
    6.7783    0.1176    1.6667 H   0  0
    7.7195    3.2554    1.7297 H   0  0
    5.8248    3.5800    3.2472 H   0  0
    9.2382    1.2205    4.9194 H   0  0
    7.9293    0.9849    6.0870 H   0  0
    9.0609    2.3294    6.2861 H   0  0
    3.4794    3.9900    2.8716 H   0  0
    3.1254    2.6338    1.8367 H   0  0
    1.0711    3.4142    2.8161 H   0  0
    1.6771    3.1999    4.4465 H   0  0
    1.3916    1.7987    3.4153 H   0  0
    4.1924    3.4511    5.4020 H   0  0
    3.9283    1.8147    7.0790 H   0  0
    4.5743   -0.5086    6.5228 H   0  0
    2.9781   -0.3348    5.8040 H   0  0
    5.1055   -2.3121    4.5449 H   0  0
    3.4833   -2.0149    3.9959 H   0  0
    6.0937   -1.7184    2.5198 H   0  0
    4.5640   -2.2949    1.8803 H   0  0
    3.0528    0.3752    3.3977 H   0  0
    5.8771    6.4983    0.4661 H   0  0
    4.3188    5.6881    0.2810 H   0  0
    5.5974    5.4399   -0.9198 H   0  0
   -3.7048    0.6525    2.3253 H   0  0
  1  2  1  0
  1 58  1  0
  1 59  1  0
  1 60  1  0
  2  3  1  0
  2 61  1  0
  2 62  1  0
  3  4  2  0
  3  8  1  0
  4  5  1  0
  4 63  1  0
  5  6  1  0
  5 64  1  0
  5 20  1  0
  6  7  1  0
  6 65  1  0
  6 66  1  0
  7  8  1  0
  7  9  1  0
  7112  1  0
  8 67  1  0
  8 68  1  0
  9 10  1  0
  9 69  1  0
  9 70  1  0
 10 11  2  0
 10 18  1  0
 11 12  1  0
 11 19  1  0
 12 13  1  0
 12 71  1  0
 13 14  2  0
 13 18  1  0
 14 15  1  0
 14 72  1  0
 15 16  2  0
 15 73  1  0
 16 17  1  0
 16 74  1  0
 17 18  2  0
 17 75  1  0
 19 20  1  0
 19 21  1  0
 19 25  1  0
 20 76  1  0
 20 77  1  0
 21 22  2  0
 21 23  1  0
 23 24  1  0
 24 78  1  0
 24 79  1  0
 24 80  1  0
 25 26  2  0
 25 30  1  0
 26 27  1  0
 26 81  1  0
 27 28  2  0
 27 52  1  0
 28 29  1  0
 28 33  1  0
 29 30  2  0
 29 82  1  0
 30 31  1  0
 31 32  1  0
 32 83  1  0
 32 84  1  0
 32 85  1  0
 33 34  1  0
 33 35  1  0
 34 86  1  0
 34 87  1  0
 34 88  1  0
 35 36  1  0
 35 89  1  0
 35 52  1  0
 36 37  1  0
 36 38  1  0
 36 54  1  0
 37 90  1  0
 38 39  1  0
 38 43  1  0
 38 91  1  0
 39 40  1  0
 40 41  2  0
 40 42  1  0
 42 92  1  0
 42 93  1  0
 42 94  1  0
 43 44  1  0
 43 46  1  0
 43 53  1  0
 44 45  1  0
 44 95  1  0
 44 96  1  0
 45 97  1  0
 45 98  1  0
 45 99  1  0
 46 47  2  0
 46100  1  0
 47 48  1  0
 47101  1  0
 48 49  1  0
 48102  1  0
 48103  1  0
 49 50  1  0
 49 53  1  0
 50 51  1  0
 50104  1  0
 50105  1  0
 51 52  1  0
 51106  1  0
 51107  1  0
 52 53  1  0
 53108  1  0
 54 55  2  0
 54 56  1  0
 56 57  1  0
 57109  1  0
 57110  1  0
 57111  1  0
M  CHG  1   7   1
M  END
> <Mol2_MolInfo_Name>
14460

> <Mol2_MolInfo_Type>
SMALL

> <Mol2_MolInfo_Charge>
USER_CHARGES

> <Mol2_Substructures>
     1 ****        1 GROUP             0       ****    0 ROOT    

> <Name>
14460

$$$$
14460
  SciTegic06232017503D

112120  0  0  0  0            999 V2000
   -2.6821    5.9169   -1.8806 C   0  0
   -3.4707    4.6807   -2.3493 C   0  0
   -3.2204    3.3614   -1.6183 C   0  0
   -2.3592    3.2291   -0.5801 C   0  0
   -2.0543    1.9225    0.1548 C   0  0  1  0  0  0
   -3.1436    0.8624   -0.1731 C   0  0
   -3.4433    0.8173   -1.6878 N   0  3  1  0  0  0
   -4.0506    2.1744   -2.1227 C   0  0
   -2.2291    0.4268   -2.5676 C   0  0
   -1.5207   -0.8102   -2.0294 C   0  0
   -0.6349   -0.9383   -0.9422 C   0  0
   -0.2140   -2.2532   -0.9159 N   0  0
   -0.8039   -3.0046   -1.8993 C   0  0
   -0.6811   -4.3614   -2.2184 C   0  0
   -1.4280   -4.8261   -3.3005 C   0  0
   -2.2566   -3.9818   -4.0340 C   0  0
   -2.3730   -2.6309   -3.7113 C   0  0
   -1.6420   -2.1169   -2.6250 C   0  0
   -0.0684    0.0529    0.1209 C   0  0  1  0  0  0
   -0.5639    1.5292   -0.1213 C   0  0
   -0.5268   -0.3919    1.5624 C   0  0
   -1.0343   -1.4949    1.7873 O   0  0
   -0.3327    0.5622    2.5111 O   0  0
   -0.6817    0.3212    3.8664 C   0  0
    1.5060    0.0610   -0.0039 C   0  0
    2.3552   -0.1118    1.1109 C   0  0
    3.7440   -0.0823    1.0014 C   0  0
    4.3266    0.1167   -0.2415 C   0  0
    3.5256    0.3248   -1.3595 C   0  0
    2.1231    0.2890   -1.2624 C   0  0
    1.3113    0.4914   -2.3663 O   0  0
    1.8795    0.6874   -3.6567 C   0  0
    5.7047    0.2338   -0.0584 N   0  0
    6.6634   -0.0683   -1.1196 C   0  0
    6.0771   -0.3123    1.2595 C   0  0  1  0  0  0
    7.3201    0.2806    2.0357 C   0  0  2  0  0  0
    7.4870   -0.4773    3.2304 O   0  0
    7.0941    1.7963    2.3954 C   0  0  2  0  0  0
    8.1366    2.2266    3.2967 O   0  0
    8.9133    3.3136    3.0750 C   0  0
    8.8799    4.0543    2.0931 O   0  0
    9.8989    3.5523    4.2108 C   0  0
    5.6345    2.2122    2.8828 C   0  0  2  0  0  0
    4.9683    3.1573    1.8251 C   0  0
    5.6849    4.4690    1.4430 C   0  0
    5.6779    3.0241    4.2012 C   0  0
    5.1715    2.6104    5.3775 C   0  0
    4.4846    1.2691    5.5357 C   0  0
    4.8225    0.3452    4.4581 N   0  0  1  0  0  0
    4.1096   -0.9111    4.3520 C   0  0
    4.5412   -1.4689    2.9992 C   0  0
    4.7792   -0.2238    2.1015 C   0  0  2  0  0  0
    4.7070    0.9470    3.1281 C   0  0  2  0  0  0
    8.6438    0.0458    1.2450 C   0  0
    9.3262    0.9792    0.8130 O   0  0
    8.9359   -1.2687    1.0616 O   0  0
   10.0944   -1.6594    0.3398 C   0  0
   -2.9425    6.7904   -2.4790 H   0  0
   -1.6065    5.7648   -1.9771 H   0  0
   -2.9001    6.1585   -0.8398 H   0  0
   -4.5369    4.9015   -2.2828 H   0  0
   -3.2615    4.5187   -3.4076 H   0  0
   -1.8091    4.0996   -0.2560 H   0  0
   -2.1461    2.1262    1.2224 H   0  0
   -2.9261   -0.1505    0.1588 H   0  0
   -4.0960    1.1306    0.2881 H   0  0
   -5.0390    2.2032   -1.6618 H   0  0
   -4.1631    2.1483   -3.2078 H   0  0
   -2.6758    0.2547   -3.5474 H   0  0
   -1.5960    1.3046   -2.6674 H   0  0
    0.4419   -2.5817   -0.2219 H   0  0
   -0.0399   -5.0260   -1.6582 H   0  0
   -1.3613   -5.8680   -3.5778 H   0  0
   -2.8176   -4.3809   -4.8666 H   0  0
   -3.0212   -1.9939   -4.2946 H   0  0
   -0.2860    1.8336   -1.1266 H   0  0
    0.0467    2.1995    0.4883 H   0  0
   -0.4550    1.2005    4.4692 H   0  0
   -0.1187   -0.5214    4.2702 H   0  0
   -1.7467    0.1063    3.9645 H   0  0
    1.9631   -0.2734    2.1012 H   0  0
    4.0046    0.5338   -2.3027 H   0  0
    1.0779    0.7967   -4.3871 H   0  0
    2.4877   -0.1660   -3.9604 H   0  0
    2.4845    1.5944   -3.6937 H   0  0
    6.2109    0.0594   -2.1027 H   0  0
    7.0263   -1.0952   -1.0596 H   0  0
    7.5111    0.6140   -1.0860 H   0  0
    6.2686   -1.3744    1.0842 H   0  0
    8.1080   -0.0150    3.7984 H   0  0
    7.2652    2.3206    1.4552 H   0  0
    9.3638    3.7476    5.1403 H   0  0
   10.5363    4.4099    3.9943 H   0  0
   10.5341    2.6774    4.3510 H   0  0
    4.8009    2.6076    0.9014 H   0  0
    3.9673    3.4215    2.1713 H   0  0
    5.0455    5.0704    0.7965 H   0  0
    6.6012    4.2863    0.8843 H   0  0
    5.9293    5.0847    2.3073 H   0  0
    6.1633    3.9884    4.2059 H   0  0
    5.2548    3.2655    6.2322 H   0  0
    4.8073    0.8393    6.4843 H   0  0
    3.4116    1.4516    5.6087 H   0  0
    4.3945   -1.5485    5.1898 H   0  0
    3.0309   -0.7709    4.4429 H   0  0
    5.4412   -2.0651    3.1536 H   0  0
    3.7739   -2.1403    2.6115 H   0  0
    3.6837    1.3330    3.1145 H   0  0
   10.1594   -2.7468    0.3063 H   0  0
   10.9996   -1.2789    0.8154 H   0  0
   10.0588   -1.2890   -0.6858 H   0  0
   -4.1502    0.1082   -1.8218 H   0  0
  1  2  1  0
  1 58  1  0
  1 59  1  0
  1 60  1  0
  2  3  1  0
  2 61  1  0
  2 62  1  0
  3  4  2  0
  3  8  1  0
  4  5  1  0
  4 63  1  0
  5  6  1  0
  5 64  1  0
  5 20  1  0
  6  7  1  0
  6 65  1  0
  6 66  1  0
  7  8  1  0
  7  9  1  0
  7112  1  0
  8 67  1  0
  8 68  1  0
  9 10  1  0
  9 69  1  0
  9 70  1  0
 10 11  2  0
 10 18  1  0
 11 12  1  0
 11 19  1  0
 12 13  1  0
 12 71  1  0
 13 14  2  0
 13 18  1  0
 14 15  1  0
 14 72  1  0
 15 16  2  0
 15 73  1  0
 16 17  1  0
 16 74  1  0
 17 18  2  0
 17 75  1  0
 19 20  1  0
 19 21  1  0
 19 25  1  0
 20 76  1  0
 20 77  1  0
 21 22  2  0
 21 23  1  0
 23 24  1  0
 24 78  1  0
 24 79  1  0
 24 80  1  0
 25 26  2  0
 25 30  1  0
 26 27  1  0
 26 81  1  0
 27 28  2  0
 27 52  1  0
 28 29  1  0
 28 33  1  0
 29 30  2  0
 29 82  1  0
 30 31  1  0
 31 32  1  0
 32 83  1  0
 32 84  1  0
 32 85  1  0
 33 34  1  0
 33 35  1  0
 34 86  1  0
 34 87  1  0
 34 88  1  0
 35 36  1  0
 35 89  1  0
 35 52  1  0
 36 37  1  0
 36 38  1  0
 36 54  1  0
 37 90  1  0
 38 39  1  0
 38 43  1  0
 38 91  1  0
 39 40  1  0
 40 41  2  0
 40 42  1  0
 42 92  1  0
 42 93  1  0
 42 94  1  0
 43 44  1  0
 43 46  1  0
 43 53  1  0
 44 45  1  0
 44 95  1  0
 44 96  1  0
 45 97  1  0
 45 98  1  0
 45 99  1  0
 46 47  2  0
 46100  1  0
 47 48  1  0
 47101  1  0
 48 49  1  0
 48102  1  0
 48103  1  0
 49 50  1  0
 49 53  1  0
 50 51  1  0
 50104  1  0
 50105  1  0
 51 52  1  0
 51106  1  0
 51107  1  0
 52 53  1  0
 53108  1  0
 54 55  2  0
 54 56  1  0
 56 57  1  0
 57109  1  0
 57110  1  0
 57111  1  0
M  CHG  1   7   1
M  END
> <Mol2_MolInfo_Name>
14460

> <Mol2_MolInfo_Type>
SMALL

> <Mol2_MolInfo_Charge>
USER_CHARGES

> <Mol2_Substructures>
     1 ****        1 GROUP             0       ****    0 ROOT    

> <Name>
14460

$$$$
14460
  SciTegic06232017503D

112120  0  0  0  0            999 V2000
   -3.3889   -0.3097    4.5559 C   0  0
   -3.9178    0.8406    3.6866 C   0  0
   -3.4678    0.7829    2.2334 C   0  0
   -2.5895    1.6890    1.7250 C   0  0
   -2.1182    1.7142    0.2571 C   0  0  2  0  0  0
   -3.0650    0.8866   -0.6193 C   0  0
   -3.1392   -0.4472    0.1326 N   0  3  1  0  0  0
   -4.0566   -0.3421    1.3614 C   0  0
   -3.1346   -1.6857   -0.7516 C   0  0
   -1.7916   -1.6821   -1.4843 C   0  0
   -0.5493   -1.0597   -1.1573 C   0  0
    0.3147   -1.4127   -2.1751 N   0  0
   -0.2683   -2.1929   -3.1385 C   0  0
    0.2496   -2.7437   -4.3161 C   0  0
   -0.6223   -3.5065   -5.0928 C   0  0
   -1.9463   -3.7137   -4.7161 C   0  0
   -2.4528   -3.1622   -3.5403 C   0  0
   -1.6095   -2.3842   -2.7271 C   0  0
   -0.0199   -0.1723    0.0477 C   0  0  1  0  0  0
   -0.6107    1.3231    0.0389 C   0  0
   -0.3987   -0.8288    1.4263 C   0  0
   -0.3637   -0.1796    2.4759 O   0  0
   -0.6904   -2.1519    1.3616 O   0  0
   -1.0211   -2.8807    2.5341 C   0  0
    1.5706   -0.0338   -0.0155 C   0  0
    2.4201   -0.6227    0.9544 C   0  0
    3.8024   -0.4504    0.9516 C   0  0
    4.3864    0.2984   -0.0610 C   0  0
    3.6095    0.8165   -1.0870 C   0  0
    2.2102    0.6742   -1.0743 C   0  0
    1.4335    1.1807   -2.1029 O   0  0
    2.0279    1.8878   -3.1874 C   0  0
    5.7666    0.2251    0.1186 N   0  0
    6.7691    1.0730   -0.5192 C   0  0
    6.0355   -0.0566    1.5345 C   0  0  1  0  0  0
    6.3378    1.1240    2.5627 C   0  0  2  0  0  0
    7.7265    1.4143    2.4076 O   0  0
    6.0962    0.6653    4.0464 C   0  0  2  0  0  0
    7.0977   -0.3072    4.4078 O   0  0
    8.0049   -0.0957    5.3896 C   0  0
    8.1109    0.9140    6.0866 O   0  0
    8.9334   -1.2881    5.5754 C   0  0
    4.6718    0.0798    4.3624 C   0  0  2  0  0  0
    3.5562    1.1735    4.2653 C   0  0
    2.1587    0.8131    4.8160 C   0  0
    4.6505   -0.4002    5.8301 C   0  0
    4.5210   -1.6862    6.2018 C   0  0
    4.4019   -2.8045    5.1867 C   0  0
    4.9247   -2.4206    3.8781 N   0  0  1  0  0  0
    4.7250   -3.3165    2.7614 C   0  0
    5.1863   -2.4987    1.5640 C   0  0
    4.8568   -1.0126    1.8972 C   0  0  2  0  0  0
    4.4100   -1.1363    3.3946 C   0  0  2  0  0  0
    5.6542    2.5123    2.3258 C   0  0
    4.7609    2.6910    1.4965 O   0  0
    6.1277    3.4871    3.1478 O   0  0
    5.6006    4.8043    3.0928 C   0  0
   -3.7175   -0.1954    5.5893 H   0  0
   -2.2986   -0.3349    4.5589 H   0  0
   -3.7464   -1.2780    4.2058 H   0  0
   -5.0083    0.8486    3.7096 H   0  0
   -3.6049    1.7865    4.1325 H   0  0
   -2.2004    2.4465    2.3906 H   0  0
   -2.2255    2.7524   -0.0618 H   0  0
   -4.0768    1.2946   -0.6618 H   0  0
   -2.7031    0.7466   -1.6386 H   0  0
   -4.0215   -1.3153    1.8514 H   0  0
   -5.0662   -0.1358    1.0034 H   0  0
   -3.2584   -2.5360   -0.0803 H   0  0
   -4.0150   -1.5842   -1.3881 H   0  0
    1.2737   -1.0958   -2.1720 H   0  0
    1.2753   -2.5903   -4.6179 H   0  0
   -0.2613   -3.9488   -6.0101 H   0  0
   -2.5900   -4.3113   -5.3453 H   0  0
   -3.4827   -3.3339   -3.2641 H   0  0
   -0.4042    1.7653   -0.9297 H   0  0
   -0.0231    1.9300    0.7314 H   0  0
   -1.2032   -3.9251    2.2816 H   0  0
   -1.9222   -2.4815    3.0012 H   0  0
   -0.2080   -2.8438    3.2605 H   0  0
    2.0246   -1.2371    1.7454 H   0  0
    4.1099    1.3339   -1.8903 H   0  0
    1.2467    2.2073   -3.8769 H   0  0
    2.7198    1.2557   -3.7459 H   0  0
    2.5501    2.7823   -2.8446 H   0  0
    6.5940    1.1060   -1.5948 H   0  0
    7.7714    0.6727   -0.3633 H   0  0
    6.7428    2.0978   -0.1526 H   0  0
    6.9432   -0.6633    1.5415 H   0  0
    7.8940    1.6166    1.4844 H   0  0
    6.2348    1.5289    4.7002 H   0  0
    8.3543   -2.1889    5.7798 H   0  0
    9.6155   -1.1197    6.4092 H   0  0
    9.5241   -1.4506    4.6737 H   0  0
    3.8894    2.0888    4.7574 H   0  0
    3.3936    1.4292    3.2217 H   0  0
    1.4517    1.6192    4.6181 H   0  0
    2.1716    0.6575    5.8946 H   0  0
    1.7558   -0.0870    4.3532 H   0  0
    4.7454    0.3355    6.6160 H   0  0
    4.4983   -1.9203    7.2560 H   0  0
    4.9776   -3.6530    5.5574 H   0  0
    3.3552   -3.1089    5.1455 H   0  0
    5.3182   -4.2173    2.9223 H   0  0
    3.6895   -3.6553    2.6930 H   0  0
    6.2544   -2.6826    1.4389 H   0  0
    4.6918   -2.8563    0.6595 H   0  0
    3.3308   -1.2852    3.4159 H   0  0
    6.1147    5.4390    3.8145 H   0  0
    4.5366    4.8080    3.3336 H   0  0
    5.7345    5.2394    2.1013 H   0  0
   -2.2210   -0.5211    0.5475 H   0  0
  1  2  1  0
  1 58  1  0
  1 59  1  0
  1 60  1  0
  2  3  1  0
  2 61  1  0
  2 62  1  0
  3  4  2  0
  3  8  1  0
  4  5  1  0
  4 63  1  0
  5  6  1  0
  5 64  1  0
  5 20  1  0
  6  7  1  0
  6 65  1  0
  6 66  1  0
  7  8  1  0
  7  9  1  0
  7112  1  0
  8 67  1  0
  8 68  1  0
  9 10  1  0
  9 69  1  0
  9 70  1  0
 10 11  2  0
 10 18  1  0
 11 12  1  0
 11 19  1  0
 12 13  1  0
 12 71  1  0
 13 14  2  0
 13 18  1  0
 14 15  1  0
 14 72  1  0
 15 16  2  0
 15 73  1  0
 16 17  1  0
 16 74  1  0
 17 18  2  0
 17 75  1  0
 19 20  1  0
 19 21  1  0
 19 25  1  0
 20 76  1  0
 20 77  1  0
 21 22  2  0
 21 23  1  0
 23 24  1  0
 24 78  1  0
 24 79  1  0
 24 80  1  0
 25 26  2  0
 25 30  1  0
 26 27  1  0
 26 81  1  0
 27 28  2  0
 27 52  1  0
 28 29  1  0
 28 33  1  0
 29 30  2  0
 29 82  1  0
 30 31  1  0
 31 32  1  0
 32 83  1  0
 32 84  1  0
 32 85  1  0
 33 34  1  0
 33 35  1  0
 34 86  1  0
 34 87  1  0
 34 88  1  0
 35 36  1  0
 35 89  1  0
 35 52  1  0
 36 37  1  0
 36 38  1  0
 36 54  1  0
 37 90  1  0
 38 39  1  0
 38 43  1  0
 38 91  1  0
 39 40  1  0
 40 41  2  0
 40 42  1  0
 42 92  1  0
 42 93  1  0
 42 94  1  0
 43 44  1  0
 43 46  1  0
 43 53  1  0
 44 45  1  0
 44 95  1  0
 44 96  1  0
 45 97  1  0
 45 98  1  0
 45 99  1  0
 46 47  2  0
 46100  1  0
 47 48  1  0
 47101  1  0
 48 49  1  0
 48102  1  0
 48103  1  0
 49 50  1  0
 49 53  1  0
 50 51  1  0
 50104  1  0
 50105  1  0
 51 52  1  0
 51106  1  0
 51107  1  0
 52 53  1  0
 53108  1  0
 54 55  2  0
 54 56  1  0
 56 57  1  0
 57109  1  0
 57110  1  0
 57111  1  0
M  CHG  1   7   1
M  END
> <Mol2_MolInfo_Name>
14460

> <Mol2_MolInfo_Type>
SMALL

> <Mol2_MolInfo_Charge>
USER_CHARGES

> <Mol2_Substructures>
     1 ****        1 GROUP             0       ****    0 ROOT    

> <Name>
14460

$$$$
14460
  SciTegic06232017503D

112120  0  0  0  0            999 V2000
    4.0817    4.3530   -3.0690 C   0  0
    3.5911    3.5455   -1.8598 C   0  0
    2.2738    2.8211   -2.0945 C   0  0
    1.1565    3.1199   -1.3777 C   0  0
   -0.2030    2.4116   -1.5448 C   0  0  1  0  0  0
   -0.2371    1.6668   -2.8846 C   0  0
    1.0483    0.8284   -2.8384 N   0  3  2  0  0  0
    2.2822    1.6915   -3.1405 C   0  0
    0.9112   -0.5905   -3.3768 C   0  0
   -0.1158   -1.2613   -2.4639 C   0  0
   -0.4612   -0.9725   -1.1124 C   0  0
   -1.5332   -1.7981   -0.8213 N   0  0
   -1.8406   -2.6584   -1.8446 C   0  0
   -2.8075   -3.6654   -1.9423 C   0  0
   -2.8645   -4.3723   -3.1435 C   0  0
   -2.0032   -4.0901   -4.2001 C   0  0
   -1.0458   -3.0825   -4.0966 C   0  0
   -0.9496   -2.3473   -2.9020 C   0  0
    0.0732    0.0662   -0.0349 C   0  0  1  0  0  0
   -0.5995    1.4959   -0.3294 C   0  0
   -0.3027   -0.4490    1.4080 C   0  0
   -0.0355   -1.6052    1.7560 O   0  0
   -0.9270    0.4550    2.2022 O   0  0
   -1.3054    0.1199    3.5292 C   0  0
    1.6417    0.1093    0.0859 C   0  0
    2.4100   -0.9294   -0.4741 C   0  0
    3.7973   -0.9714   -0.3661 C   0  0
    4.4501    0.0377    0.3314 C   0  0
    3.7324    1.0860    0.8939 C   0  0
    2.3277    1.1089    0.8264 C   0  0
    1.5835    2.0766    1.4765 O   0  0
    2.2275    3.0799    2.2548 C   0  0
    5.8174   -0.1988    0.2025 N   0  0
    6.8815    0.4275    0.9806 C   0  0
    6.0150   -1.6358   -0.0314 C   0  0  1  0  0  0
    6.3124   -2.6317    1.1795 C   0  0  2  0  0  0
    7.7177   -2.5342    1.4078 O   0  0
    5.9743   -4.1193    0.7954 C   0  0  2  0  0  0
    6.9178   -4.5888   -0.1889 O   0  0
    7.8607   -5.5208    0.0852 C   0  0
    8.0530   -6.0737    1.1688 O   0  0
    8.7115   -5.8489   -1.1344 C   0  0
    4.5160   -4.3793    0.2678 C   0  0  2  0  0  0
    3.4426   -4.1703    1.3881 C   0  0
    1.9968   -4.6203    1.0814 C   0  0
    4.3981   -5.8631   -0.1436 C   0  0
    4.2190   -6.2834   -1.4086 C   0  0
    4.1339   -5.3143   -2.5703 C   0  0
    4.7311   -4.0183   -2.2565 N   0  0  1  0  0  0
    4.5614   -2.9333   -3.1963 C   0  0
    5.0788   -1.7172   -2.4405 C   0  0
    4.7881   -1.9794   -0.9322 C   0  0  2  0  0  0
    4.2705   -3.4562   -0.9840 C   0  0  2  0  0  0
    5.7021   -2.3063    2.5845 C   0  0
    4.8628   -1.4235    2.7682 O   0  0
    6.1727   -3.1164    3.5707 O   0  0
    5.7085   -2.9824    4.9059 C   0  0
    5.0223    4.8560   -2.8432 H   0  0
    3.3580    5.1177   -3.3532 H   0  0
    4.2518    3.7126   -3.9351 H   0  0
    4.3440    2.8044   -1.5878 H   0  0
    3.5048    4.2106   -0.9989 H   0  0
    1.2249    3.9039   -0.6372 H   0  0
   -0.9500    3.2046   -1.6057 H   0  0
   -1.1206    1.0401   -3.0109 H   0  0
   -0.1613    2.3334   -3.7460 H   0  0
    2.1934    2.0447   -4.1687 H   0  0
    3.1495    1.0395   -3.0372 H   0  0
    0.6044   -0.4697   -4.4167 H   0  0
    1.9058   -1.0340   -3.3314 H   0  0
   -1.9849   -1.7673    0.0814 H   0  0
   -3.4825   -3.8929   -1.1303 H   0  0
   -3.5963   -5.1584   -3.2581 H   0  0
   -2.0805   -4.6602   -5.1145 H   0  0
   -0.3881   -2.8753   -4.9278 H   0  0
   -0.5658    2.1504    0.5396 H   0  0
   -1.6696    1.3080   -0.4376 H   0  0
   -1.7791    0.9777    4.0064 H   0  0
   -0.4360   -0.1620    4.1247 H   0  0
   -2.0151   -0.7085    3.5365 H   0  0
    1.9282   -1.7414   -0.9894 H   0  0
    4.2773    1.8599    1.4111 H   0  0
    1.4717    3.7301    2.6950 H   0  0
    2.8811    3.7025    1.6422 H   0  0
    2.8046    2.6445    3.0720 H   0  0
    6.7508    1.5099    0.9801 H   0  0
    7.8574    0.2162    0.5423 H   0  0
    6.8882    0.0996    2.0187 H   0  0
    6.8992   -1.7079   -0.6680 H   0  0
    7.9383   -1.6127    1.5618 H   0  0
    6.0997   -4.7452    1.6814 H   0  0
    9.1699   -4.9434   -1.5320 H   0  0
    8.0949   -6.2977   -1.9131 H   0  0
    9.5040   -6.5512   -0.8750 H   0  0
    3.7660   -4.6627    2.3066 H   0  0
    3.3636   -3.1120    1.6215 H   0  0
    1.3435   -4.4006    1.9263 H   0  0
    1.9292   -5.6924    0.8975 H   0  0
    1.5811   -4.1039    0.2166 H   0  0
    4.4619   -6.6199    0.6253 H   0  0
    4.1287   -7.3436   -1.5939 H   0  0
    4.6727   -5.7542   -3.4100 H   0  0
    3.0853   -5.2325   -2.8603 H   0  0
    5.1348   -3.1553   -4.0971 H   0  0
    3.5248   -2.8405   -3.5249 H   0  0
    6.1432   -1.6237   -2.6613 H   0  0
    4.5944   -0.8173   -2.8195 H   0  0
    3.1886   -3.4342   -1.1095 H   0  0
    6.2013   -3.7158    5.5440 H   0  0
    4.6320   -3.1501    4.9632 H   0  0
    5.9269   -1.9883    5.2987 H   0  0
    1.1509    0.6341   -1.8515 H   0  0
  1  2  1  0
  1 58  1  0
  1 59  1  0
  1 60  1  0
  2  3  1  0
  2 61  1  0
  2 62  1  0
  3  4  2  0
  3  8  1  0
  4  5  1  0
  4 63  1  0
  5  6  1  0
  5 64  1  0
  5 20  1  0
  6  7  1  0
  6 65  1  0
  6 66  1  0
  7  8  1  0
  7  9  1  0
  7112  1  0
  8 67  1  0
  8 68  1  0
  9 10  1  0
  9 69  1  0
  9 70  1  0
 10 11  2  0
 10 18  1  0
 11 12  1  0
 11 19  1  0
 12 13  1  0
 12 71  1  0
 13 14  2  0
 13 18  1  0
 14 15  1  0
 14 72  1  0
 15 16  2  0
 15 73  1  0
 16 17  1  0
 16 74  1  0
 17 18  2  0
 17 75  1  0
 19 20  1  0
 19 21  1  0
 19 25  1  0
 20 76  1  0
 20 77  1  0
 21 22  2  0
 21 23  1  0
 23 24  1  0
 24 78  1  0
 24 79  1  0
 24 80  1  0
 25 26  2  0
 25 30  1  0
 26 27  1  0
 26 81  1  0
 27 28  2  0
 27 52  1  0
 28 29  1  0
 28 33  1  0
 29 30  2  0
 29 82  1  0
 30 31  1  0
 31 32  1  0
 32 83  1  0
 32 84  1  0
 32 85  1  0
 33 34  1  0
 33 35  1  0
 34 86  1  0
 34 87  1  0
 34 88  1  0
 35 36  1  0
 35 89  1  0
 35 52  1  0
 36 37  1  0
 36 38  1  0
 36 54  1  0
 37 90  1  0
 38 39  1  0
 38 43  1  0
 38 91  1  0
 39 40  1  0
 40 41  2  0
 40 42  1  0
 42 92  1  0
 42 93  1  0
 42 94  1  0
 43 44  1  0
 43 46  1  0
 43 53  1  0
 44 45  1  0
 44 95  1  0
 44 96  1  0
 45 97  1  0
 45 98  1  0
 45 99  1  0
 46 47  2  0
 46100  1  0
 47 48  1  0
 47101  1  0
 48 49  1  0
 48102  1  0
 48103  1  0
 49 50  1  0
 49 53  1  0
 50 51  1  0
 50104  1  0
 50105  1  0
 51 52  1  0
 51106  1  0
 51107  1  0
 52 53  1  0
 53108  1  0
 54 55  2  0
 54 56  1  0
 56 57  1  0
 57109  1  0
 57110  1  0
 57111  1  0
M  CHG  1   7   1
M  END
> <Mol2_MolInfo_Name>
14460

> <Mol2_MolInfo_Type>
SMALL

> <Mol2_MolInfo_Charge>
USER_CHARGES

> <Mol2_Substructures>
     1 ****        1 GROUP             0       ****    0 ROOT    

> <Name>
14460

$$$$
14460
  SciTegic06232017503D

112120  0  0  0  0            999 V2000
   -1.9389    6.2811   -3.4235 C   0  0
   -2.3775    5.2230   -2.4006 C   0  0
   -1.4806    3.9935   -2.3563 C   0  0
   -0.7614    3.6837   -1.2533 C   0  0
    0.1264    2.4486   -1.0986 C   0  0  2  0  0  0
    0.4163    1.8372   -2.4988 C   0  0
   -0.8739    1.7160   -3.3395 N   0  3  2  0  0  0
   -1.4271    3.1347   -3.6264 C   0  0
   -1.9542    0.7910   -2.7233 C   0  0
   -1.3684   -0.5354   -2.2424 C   0  0
   -0.6105   -0.8340   -1.0892 C   0  0
   -0.3860   -2.1988   -1.1023 N   0  0
   -0.9273   -2.8062   -2.2060 C   0  0
   -0.9305   -4.1457   -2.6119 C   0  0
   -1.5725   -4.4410   -3.8138 C   0  0
   -2.1876   -3.4526   -4.5760 C   0  0
   -2.1873   -2.1218   -4.1617 C   0  0
   -1.5498   -1.7748   -2.9566 C   0  0
   -0.0308    0.0209    0.0848 C   0  0  1  0  0  0
   -0.5164    1.5146   -0.0252 C   0  0
   -0.6089   -0.6139    1.4001 C   0  0
    0.0561   -1.3771    2.1088 O   0  0
   -1.8975   -0.2696    1.6471 O   0  0
   -2.5733   -0.7650    2.7933 C   0  0
    1.5428    0.0114    0.1774 C   0  0
    2.3102   -0.6004   -0.8320 C   0  0
    3.7030   -0.6219   -0.7950 C   0  0
    4.3610    0.0052    0.2572 C   0  0
    3.6421    0.6686    1.2441 C   0  0
    2.2361    0.6631    1.2324 C   0  0
    1.4946    1.2948    2.2166 O   0  0
    2.1445    1.9309    3.3120 C   0  0
    5.7239   -0.0451   -0.0281 N   0  0
    6.8186    0.2494    0.8919 C   0  0
    5.9765   -1.1863   -0.9159 C   0  0  1  0  0  0
    6.4567   -2.5901   -0.3332 C   0  0  2  0  0  0
    7.8704   -2.4742   -0.1771 O   0  0
    6.1751   -3.7582   -1.3460 C   0  0  2  0  0  0
    7.0291   -3.5901   -2.4964 O   0  0
    7.9022   -4.5396   -2.9080 C   0  0
    8.0921   -5.6377   -2.3844 O   0  0
    8.6679   -4.1112   -4.1527 C   0  0
    4.6837   -3.9082   -1.8199 C   0  0  2  0  0  0
    3.7448   -4.3559   -0.6505 C   0  0
    2.3225   -4.8229   -1.0240 C   0  0
    4.6018   -5.0423   -2.8657 C   0  0
    4.2593   -4.8592   -4.1533 C   0  0
    3.9457   -3.4857   -4.7102 C   0  0
    4.5278   -2.4208   -3.8984 N   0  0  1  0  0  0
    4.2083   -1.0456   -4.2075 C   0  0
    4.8299   -0.2808   -3.0489 C   0  0
    4.6902   -1.2011   -1.8003 C   0  0  2  0  0  0
    4.2315   -2.5437   -2.4684 C   0  0  2  0  0  0
    5.9716   -3.0000    1.0980 C   0  0
    5.0979   -2.3875    1.7144 O   0  0
    6.5872   -4.1172    1.5704 O   0  0
    6.2538   -4.6466    2.8450 C   0  0
   -2.6070    7.1424   -3.4003 H   0  0
   -1.9492    5.8854   -4.4395 H   0  0
   -0.9305    6.6395   -3.2134 H   0  0
   -2.4256    5.6870   -1.4141 H   0  0
   -3.3940    4.8964   -2.6245 H   0  0
   -0.8476    4.3396   -0.3983 H   0  0
    1.0891    2.7799   -0.7068 H   0  0
    1.0658    2.4931   -3.0815 H   0  0
    0.8980    0.8653   -2.4969 H   0  0
   -2.3940    3.0188   -4.1186 H   0  0
   -0.7173    3.5737   -4.3289 H   0  0
   -2.4875    1.3615   -1.9678 H   0  0
   -2.6547    0.6557   -3.5477 H   0  0
    0.1336   -2.6521   -0.3642 H   0  0
   -0.4596   -4.9236   -2.0291 H   0  0
   -1.5943   -5.4634   -4.1626 H   0  0
   -2.6750   -3.7224   -5.5016 H   0  0
   -2.6742   -1.3727   -4.7680 H   0  0
   -0.3840    2.0216    0.9310 H   0  0
   -1.5999    1.5236   -0.1189 H   0  0
   -3.5955   -0.3875    2.8125 H   0  0
   -2.0752   -0.4446    3.7095 H   0  0
   -2.6137   -1.8553    2.7837 H   0  0
    1.8312   -1.0591   -1.6802 H   0  0
    4.1889    1.1857    2.0168 H   0  0
    1.3916    2.3382    3.9866 H   0  0
    2.7710    2.7595    2.9787 H   0  0
    2.7510    1.2257    3.8826 H   0  0
    6.6332    1.1987    1.3947 H   0  0
    7.7628    0.3430    0.3543 H   0  0
    6.9336   -0.5112    1.6623 H   0  0
    6.7954   -0.8636   -1.5617 H   0  0
    8.2629   -2.3555   -1.0451 H   0  0
    6.4572   -4.6990   -0.8685 H   0  0
    7.9738   -3.8169   -4.9404 H   0  0
    9.2857   -4.9282   -4.5264 H   0  0
    9.3158   -3.2647   -3.9249 H   0  0
    4.2216   -5.1476   -0.0700 H   0  0
    3.5974   -3.5212    0.0298 H   0  0
    1.7303   -5.0059   -0.1270 H   0  0
    2.3315   -5.7504   -1.5965 H   0  0
    1.7965   -4.0727   -1.6114 H   0  0
    4.8244   -6.0521   -2.5515 H   0  0
    4.2059   -5.7208   -4.8024 H   0  0
    4.3646   -3.4287   -5.7152 H   0  0
    2.8618   -3.3982   -4.7976 H   0  0
    4.6418   -0.7916   -5.1756 H   0  0
    3.1326   -0.8948   -4.3167 H   0  0
    5.8683   -0.0859   -3.3216 H   0  0
    4.3431    0.6884   -2.9293 H   0  0
    3.1424   -2.5735   -2.4508 H   0  0
    6.8537   -5.5342    3.0451 H   0  0
    5.2012   -4.9306    2.8866 H   0  0
    6.4491   -3.9190    3.6341 H   0  0
   -0.6042    1.3096   -4.2242 H   0  0
  1  2  1  0
  1 58  1  0
  1 59  1  0
  1 60  1  0
  2  3  1  0
  2 61  1  0
  2 62  1  0
  3  4  2  0
  3  8  1  0
  4  5  1  0
  4 63  1  0
  5  6  1  0
  5 64  1  0
  5 20  1  0
  6  7  1  0
  6 65  1  0
  6 66  1  0
  7  8  1  0
  7  9  1  0
  7112  1  0
  8 67  1  0
  8 68  1  0
  9 10  1  0
  9 69  1  0
  9 70  1  0
 10 11  2  0
 10 18  1  0
 11 12  1  0
 11 19  1  0
 12 13  1  0
 12 71  1  0
 13 14  2  0
 13 18  1  0
 14 15  1  0
 14 72  1  0
 15 16  2  0
 15 73  1  0
 16 17  1  0
 16 74  1  0
 17 18  2  0
 17 75  1  0
 19 20  1  0
 19 21  1  0
 19 25  1  0
 20 76  1  0
 20 77  1  0
 21 22  2  0
 21 23  1  0
 23 24  1  0
 24 78  1  0
 24 79  1  0
 24 80  1  0
 25 26  2  0
 25 30  1  0
 26 27  1  0
 26 81  1  0
 27 28  2  0
 27 52  1  0
 28 29  1  0
 28 33  1  0
 29 30  2  0
 29 82  1  0
 30 31  1  0
 31 32  1  0
 32 83  1  0
 32 84  1  0
 32 85  1  0
 33 34  1  0
 33 35  1  0
 34 86  1  0
 34 87  1  0
 34 88  1  0
 35 36  1  0
 35 89  1  0
 35 52  1  0
 36 37  1  0
 36 38  1  0
 36 54  1  0
 37 90  1  0
 38 39  1  0
 38 43  1  0
 38 91  1  0
 39 40  1  0
 40 41  2  0
 40 42  1  0
 42 92  1  0
 42 93  1  0
 42 94  1  0
 43 44  1  0
 43 46  1  0
 43 53  1  0
 44 45  1  0
 44 95  1  0
 44 96  1  0
 45 97  1  0
 45 98  1  0
 45 99  1  0
 46 47  2  0
 46100  1  0
 47 48  1  0
 47101  1  0
 48 49  1  0
 48102  1  0
 48103  1  0
 49 50  1  0
 49 53  1  0
 50 51  1  0
 50104  1  0
 50105  1  0
 51 52  1  0
 51106  1  0
 51107  1  0
 52 53  1  0
 53108  1  0
 54 55  2  0
 54 56  1  0
 56 57  1  0
 57109  1  0
 57110  1  0
 57111  1  0
M  CHG  1   7   1
M  END
> <Mol2_MolInfo_Name>
14460

> <Mol2_MolInfo_Type>
SMALL

> <Mol2_MolInfo_Charge>
USER_CHARGES

> <Mol2_Substructures>
     1 ****        1 GROUP             0       ****    0 ROOT    

> <Name>
14460

$$$$
14460
  SciTegic06232017503D

112120  0  0  0  0            999 V2000
   -5.8193    1.6875   -2.8550 C   0  0
   -4.5793    0.7963   -2.6956 C   0  0
   -3.7951    1.0519   -1.4167 C   0  0
   -2.5288    1.5213   -1.4383 C   0  0
   -1.6621    1.7643   -0.2023 C   0  0  1  0  0  0
   -2.4084    1.4720    1.1315 C   0  0
   -3.4652    0.3468    0.9833 N   0  3  1  0  0  0
   -4.5008    0.7564   -0.0915 C   0  0
   -2.9011   -1.0665    0.6878 C   0  0
   -1.5947   -1.3095    1.4155 C   0  0
   -0.2973   -0.9925    0.9853 C   0  0
    0.5576   -1.4356    1.9751 N   0  0
   -0.1091   -1.9905    3.0379 C   0  0
    0.3588   -2.5357    4.2386 C   0  0
   -0.6006   -3.0239    5.1260 C   0  0
   -1.9610   -2.9738    4.8337 C   0  0
   -2.4190   -2.4303    3.6345 C   0  0
   -1.4874   -1.9250    2.7113 C   0  0
    0.2332   -0.2952   -0.3109 C   0  0  2  0  0  0
   -0.1903    1.2401   -0.3053 C   0  0
   -0.3844   -0.9723   -1.5799 C   0  0
   -0.5175   -0.3591   -2.6434 O   0  0
   -0.6804   -2.2887   -1.4176 O   0  0
   -1.2189   -3.0488   -2.4891 C   0  0
    1.8264   -0.3278   -0.3694 C   0  0
    2.4911    0.3549    0.6719 C   0  0
    3.8748    0.4396    0.7609 C   0  0
    4.6597   -0.1492   -0.2235 C   0  0
    4.0561   -0.8781   -1.2402 C   0  0
    2.6533   -0.9805   -1.3398 C   0  0
    2.0875   -1.7329   -2.3556 O   0  0
    2.8892   -2.3743   -3.3433 C   0  0
    6.0023    0.0241    0.1357 N   0  0
    7.0730    0.0457   -0.8550 C   0  0
    6.0116    1.2029    1.0110 C   0  0  2  0  0  0
    7.2596    1.6900    1.8447 C   0  0  2  0  0  0
    7.9106    0.5210    2.3393 O   0  0
    6.8195    2.6830    3.0114 C   0  0  2  0  0  0
    6.8566    2.0612    4.3091 O   0  0
    7.9490    2.1000    5.1094 C   0  0
    9.0239    2.6450    4.8555 O   0  0
    7.7223    1.3662    6.4242 C   0  0
    5.4326    3.4264    2.8100 C   0  0  2  0  0  0
    5.6361    4.5341    1.7203 C   0  0
    4.4462    5.4803    1.4486 C   0  0
    5.0837    4.2068    4.0953 C   0  0
    3.9417    4.0662    4.7888 C   0  0
    2.8708    3.0784    4.3827 C   0  0
    3.3921    1.9919    3.5616 N   0  0  2  0  0  0
    3.9551    0.8072    4.1789 C   0  0
    4.7557    0.0950    3.0871 C   0  0
    4.7381    1.0458    1.8533 C   0  0  2  0  0  0
    4.2612    2.3934    2.4514 C   0  0  2  0  0  0
    8.3239    2.4378    0.9825 C   0  0
    8.0598    2.9060   -0.1281 O   0  0
    9.5350    2.5405    1.5897 O   0  0
   10.6110    3.2131    0.9531 C   0  0
   -6.3339    1.4728   -3.7920 H   0  0
   -5.5475    2.7436   -2.8621 H   0  0
   -6.5321    1.5304   -2.0449 H   0  0
   -4.8777   -0.2529   -2.7093 H   0  0
   -3.9323    0.9317   -3.5640 H   0  0
   -2.0892    1.7280   -2.4038 H   0  0
   -1.5385    2.8490   -0.2051 H   0  0
   -1.7497    1.2286    1.9655 H   0  0
   -2.9964    2.3362    1.4456 H   0  0
   -4.9899    1.6553    0.2869 H   0  0
   -5.2295   -0.0531   -0.1586 H   0  0
   -3.6974   -1.7419    1.0025 H   0  0
   -2.8100   -1.1521   -0.3917 H   0  0
    1.5582   -1.3285    1.8882 H   0  0
    1.4114   -2.5799    4.4769 H   0  0
   -0.2807   -3.4526    6.0648 H   0  0
   -2.6722   -3.3630    5.5477 H   0  0
   -3.4780   -2.3998    3.4250 H   0  0
    0.2578    1.7159   -1.1810 H   0  0
    0.3043    1.7380    0.5264 H   0  0
   -1.3885   -4.0758   -2.1660 H   0  0
   -0.5332   -3.0685   -3.3376 H   0  0
   -2.1719   -2.6353   -2.8222 H   0  0
    1.9221    0.8131    1.4657 H   0  0
    4.6999   -1.3731   -1.9498 H   0  0
    2.2384   -2.8877   -4.0511 H   0  0
    3.5482   -3.1227   -2.9010 H   0  0
    3.4839   -1.6541   -3.9070 H   0  0
    7.0073   -0.8338   -1.4957 H   0  0
    8.0554    0.0232   -0.3845 H   0  0
    7.0043    0.9263   -1.4949 H   0  0
    5.7989    2.0235    0.3213 H   0  0
    8.0530   -0.0809    1.6050 H   0  0
    7.5553    3.4875    3.0895 H   0  0
    7.3954    0.3432    6.2364 H   0  0
    6.9576    1.8745    7.0117 H   0  0
    8.6414    1.3318    7.0099 H   0  0
    6.4961    5.1535    1.9833 H   0  0
    5.8985    4.0848    0.7665 H   0  0
    4.7096    6.2091    0.6814 H   0  0
    4.1581    6.0426    2.3369 H   0  0
    3.5668    4.9469    1.0904 H   0  0
    5.7922    4.9365    4.4610 H   0  0
    3.7859    4.6889    5.6575 H   0  0
    2.4186    2.6608    5.2832 H   0  0
    2.0872    3.6280    3.8604 H   0  0
    4.5843    1.0749    5.0286 H   0  0
    3.1584    0.1883    4.5929 H   0  0
    5.7578   -0.0747    3.4703 H   0  0
    4.3153   -0.8797    2.8697 H   0  0
    3.6073    2.8904    1.7362 H   0  0
   11.4918    3.1921    1.5948 H   0  0
   10.3589    4.2563    0.7569 H   0  0
   10.8670    2.7337    0.0070 H   0  0
   -3.9468    0.2892    1.8695 H   0  0
  1  2  1  0
  1 58  1  0
  1 59  1  0
  1 60  1  0
  2  3  1  0
  2 61  1  0
  2 62  1  0
  3  4  2  0
  3  8  1  0
  4  5  1  0
  4 63  1  0
  5  6  1  0
  5 64  1  0
  5 20  1  0
  6  7  1  0
  6 65  1  0
  6 66  1  0
  7  8  1  0
  7  9  1  0
  7112  1  0
  8 67  1  0
  8 68  1  0
  9 10  1  0
  9 69  1  0
  9 70  1  0
 10 11  2  0
 10 18  1  0
 11 12  1  0
 11 19  1  0
 12 13  1  0
 12 71  1  0
 13 14  2  0
 13 18  1  0
 14 15  1  0
 14 72  1  0
 15 16  2  0
 15 73  1  0
 16 17  1  0
 16 74  1  0
 17 18  2  0
 17 75  1  0
 19 20  1  0
 19 21  1  0
 19 25  1  0
 20 76  1  0
 20 77  1  0
 21 22  2  0
 21 23  1  0
 23 24  1  0
 24 78  1  0
 24 79  1  0
 24 80  1  0
 25 26  2  0
 25 30  1  0
 26 27  1  0
 26 81  1  0
 27 28  2  0
 27 52  1  0
 28 29  1  0
 28 33  1  0
 29 30  2  0
 29 82  1  0
 30 31  1  0
 31 32  1  0
 32 83  1  0
 32 84  1  0
 32 85  1  0
 33 34  1  0
 33 35  1  0
 34 86  1  0
 34 87  1  0
 34 88  1  0
 35 36  1  0
 35 89  1  0
 35 52  1  0
 36 37  1  0
 36 38  1  0
 36 54  1  0
 37 90  1  0
 38 39  1  0
 38 43  1  0
 38 91  1  0
 39 40  1  0
 40 41  2  0
 40 42  1  0
 42 92  1  0
 42 93  1  0
 42 94  1  0
 43 44  1  0
 43 46  1  0
 43 53  1  0
 44 45  1  0
 44 95  1  0
 44 96  1  0
 45 97  1  0
 45 98  1  0
 45 99  1  0
 46 47  2  0
 46100  1  0
 47 48  1  0
 47101  1  0
 48 49  1  0
 48102  1  0
 48103  1  0
 49 50  1  0
 49 53  1  0
 50 51  1  0
 50104  1  0
 50105  1  0
 51 52  1  0
 51106  1  0
 51107  1  0
 52 53  1  0
 53108  1  0
 54 55  2  0
 54 56  1  0
 56 57  1  0
 57109  1  0
 57110  1  0
 57111  1  0
M  CHG  1   7   1
M  END
> <Mol2_MolInfo_Name>
14460

> <Mol2_MolInfo_Type>
SMALL

> <Mol2_MolInfo_Charge>
USER_CHARGES

> <Mol2_Substructures>
     1 ****        1 GROUP             0       ****    0 ROOT    

> <Name>
14460

$$$$
14460
  SciTegic06232017503D

112120  0  0  0  0            999 V2000
    4.4160    3.8259    3.0336 C   0  0
    3.8314    3.0708    1.8324 C   0  0
    2.4490    2.4852    2.0825 C   0  0
    1.3616    2.8870    1.3686 C   0  0
   -0.0615    2.3186    1.5511 C   0  0  2  0  0  0
   -0.1603    1.5747    2.8877 C   0  0
    1.0432    0.6245    2.8389 N   0  3  1  0  0  0
    2.3521    1.3697    3.1393 C   0  0
    0.7700   -0.7693    3.3852 C   0  0
   -0.2574   -1.3763    2.4312 C   0  0
   -0.5644   -1.0567    1.0751 C   0  0
   -1.6468   -1.8580    0.7512 N   0  0
   -2.0036   -2.7195    1.7565 C   0  0
   -2.9986   -3.7014    1.8195 C   0  0
   -3.1064   -4.4162    3.0125 C   0  0
   -2.2656   -4.1662    4.0933 C   0  0
   -1.2783   -3.1849    4.0225 C   0  0
   -1.1326   -2.4418    2.8377 C   0  0
    0.0098   -0.0174    0.0137 C   0  0  2  0  0  0
   -0.5645    1.4429    0.3472 C   0  0
   -0.4710   -0.4307   -1.4290 C   0  0
   -1.1700    0.3034   -2.1339 O   0  0
   -0.0440   -1.6680   -1.7995 O   0  0
   -0.3752   -2.1987   -3.0741 C   0  0
    1.5764   -0.0274   -0.1463 C   0  0
    2.3409   -1.0299    0.4779 C   0  0
    3.7320   -1.0429    0.4155 C   0  0
    4.3955   -0.0756   -0.3376 C   0  0
    3.6657    0.8609   -1.0602 C   0  0
    2.2634    0.9093   -0.9662 C   0  0
    1.5195    1.8422   -1.6667 O   0  0
    2.1639    2.8239   -2.4715 C   0  0
    5.7649   -0.3634   -0.3029 N   0  0
    6.7797    0.6672   -0.4964 C   0  0
    5.9569   -1.1172    0.9401 C   0  0  2  0  0  0
    7.2910   -1.8392    1.3572 C   0  0  2  0  0  0
    7.7546   -2.5314    0.1977 O   0  0
    7.0357   -2.8246    2.5867 C   0  0  2  0  0  0
    7.1145   -4.2074    2.1911 O   0  0
    8.2664   -4.9179    2.2392 C   0  0
    9.3680   -4.5024    2.6001 O   0  0
    8.0708   -6.3558    1.7779 C   0  0
    5.7087   -2.5994    3.4384 C   0  0  2  0  0  0
    5.9080   -1.3576    4.3745 C   0  0
    4.8313   -1.1028    5.4540 C   0  0
    5.5218   -3.7851    4.4104 C   0  0
    4.4079   -4.5312    4.4997 C   0  0
    3.2107   -4.2966    3.6054 C   0  0
    3.5663   -3.6234    2.3618 N   0  0  2  0  0  0
    4.0448   -4.3859    1.2267 C   0  0
    4.6763   -3.3744    0.2685 C   0  0
    4.7155   -2.0199    1.0379 C   0  0  2  0  0  0
    4.4232   -2.4432    2.4989 C   0  0  2  0  0  0
    8.4356   -0.8457    1.7447 C   0  0
    9.5628   -0.8995    1.2397 O   0  0
    8.0638    0.0707    2.6644 O   0  0
    8.9783    1.0543    3.1260 C   0  0
    5.3943    4.2417    2.7908 H   0  0
    4.5431    3.1691    3.8948 H   0  0
    3.7705    4.6523    3.3332 H   0  0
    3.8042    3.7384    0.9697 H   0  0
    4.5025    2.2564    1.5565 H   0  0
    1.5025    3.6520    0.6184 H   0  0
   -0.7264    3.1809    1.6204 H   0  0
   -0.0260    2.2272    3.7527 H   0  0
   -1.0931    1.0226    3.0097 H   0  0
    3.1557    0.6388    3.0433 H   0  0
    2.2953    1.7376    4.1646 H   0  0
    1.7213   -1.2961    3.3979 H   0  0
    0.4244   -0.6131    4.4082 H   0  0
   -2.0782   -1.8045   -0.1603 H   0  0
   -3.6573   -3.9040    0.9875 H   0  0
   -3.8621   -5.1832    3.1010 H   0  0
   -2.3815   -4.7410    5.0008 H   0  0
   -0.6360   -3.0028    4.8716 H   0  0
   -1.6399    1.3234    0.4951 H   0  0
   -0.5213    2.0967   -0.5231 H   0  0
    0.0586   -3.1926   -3.1848 H   0  0
    0.0139   -1.5673   -3.8743 H   0  0
   -1.4561   -2.2841   -3.1937 H   0  0
    1.8641   -1.8209    1.0314 H   0  0
    4.2018    1.5569   -1.6861 H   0  0
    1.4094    3.4739   -2.9142 H   0  0
    2.7249    2.3668   -3.2880 H   0  0
    2.8318    3.4510   -1.8789 H   0  0
    6.5384    1.2758   -1.3682 H   0  0
    7.7582    0.2252   -0.6819 H   0  0
    6.8458    1.3321    0.3661 H   0  0
    5.8157   -0.3481    1.7021 H   0  0
    7.8407   -1.8996   -0.5200 H   0  0
    7.8520   -2.7064    3.3037 H   0  0
    7.6819   -6.3761    0.7597 H   0  0
    7.3641   -6.8685    2.4304 H   0  0
    9.0156   -6.8993    1.7976 H   0  0
    6.8744   -1.4226    4.8776 H   0  0
    5.9471   -0.4480    3.7837 H   0  0
    5.0457   -0.1808    5.9951 H   0  0
    4.7969   -1.9029    6.1934 H   0  0
    3.8340   -1.0000    5.0280 H   0  0
    6.3285   -4.0236    5.0891 H   0  0
    4.3698   -5.3156    5.2413 H   0  0
    2.7493   -5.2572    3.3728 H   0  0
    2.4768   -3.7196    4.1690 H   0  0
    4.7610   -5.1454    1.5433 H   0  0
    3.2194   -4.9399    0.7785 H   0  0
    5.6611   -3.7529    0.0150 H   0  0
    4.0934   -3.3137   -0.6523 H   0  0
    3.8017   -1.6825    2.9633 H   0  0
    8.4943    1.6902    3.8671 H   0  0
    9.3194    1.6873    2.3056 H   0  0
    9.8490    0.5915    3.5928 H   0  0
    1.1273    0.4179    1.8528 H   0  0
  1  2  1  0
  1 58  1  0
  1 59  1  0
  1 60  1  0
  2  3  1  0
  2 61  1  0
  2 62  1  0
  3  4  2  0
  3  8  1  0
  4  5  1  0
  4 63  1  0
  5  6  1  0
  5 64  1  0
  5 20  1  0
  6  7  1  0
  6 65  1  0
  6 66  1  0
  7  8  1  0
  7  9  1  0
  7112  1  0
  8 67  1  0
  8 68  1  0
  9 10  1  0
  9 69  1  0
  9 70  1  0
 10 11  2  0
 10 18  1  0
 11 12  1  0
 11 19  1  0
 12 13  1  0
 12 71  1  0
 13 14  2  0
 13 18  1  0
 14 15  1  0
 14 72  1  0
 15 16  2  0
 15 73  1  0
 16 17  1  0
 16 74  1  0
 17 18  2  0
 17 75  1  0
 19 20  1  0
 19 21  1  0
 19 25  1  0
 20 76  1  0
 20 77  1  0
 21 22  2  0
 21 23  1  0
 23 24  1  0
 24 78  1  0
 24 79  1  0
 24 80  1  0
 25 26  2  0
 25 30  1  0
 26 27  1  0
 26 81  1  0
 27 28  2  0
 27 52  1  0
 28 29  1  0
 28 33  1  0
 29 30  2  0
 29 82  1  0
 30 31  1  0
 31 32  1  0
 32 83  1  0
 32 84  1  0
 32 85  1  0
 33 34  1  0
 33 35  1  0
 34 86  1  0
 34 87  1  0
 34 88  1  0
 35 36  1  0
 35 89  1  0
 35 52  1  0
 36 37  1  0
 36 38  1  0
 36 54  1  0
 37 90  1  0
 38 39  1  0
 38 43  1  0
 38 91  1  0
 39 40  1  0
 40 41  2  0
 40 42  1  0
 42 92  1  0
 42 93  1  0
 42 94  1  0
 43 44  1  0
 43 46  1  0
 43 53  1  0
 44 45  1  0
 44 95  1  0
 44 96  1  0
 45 97  1  0
 45 98  1  0
 45 99  1  0
 46 47  2  0
 46100  1  0
 47 48  1  0
 47101  1  0
 48 49  1  0
 48102  1  0
 48103  1  0
 49 50  1  0
 49 53  1  0
 50 51  1  0
 50104  1  0
 50105  1  0
 51 52  1  0
 51106  1  0
 51107  1  0
 52 53  1  0
 53108  1  0
 54 55  2  0
 54 56  1  0
 56 57  1  0
 57109  1  0
 57110  1  0
 57111  1  0
M  CHG  1   7   1
M  END
> <Mol2_MolInfo_Name>
14460

> <Mol2_MolInfo_Type>
SMALL

> <Mol2_MolInfo_Charge>
USER_CHARGES

> <Mol2_Substructures>
     1 ****        1 GROUP             0       ****    0 ROOT    

> <Name>
14460

$$$$
14460
  SciTegic06232017503D

112120  0  0  0  0            999 V2000
   -3.2980   -0.3153   -4.5566 C   0  0
   -3.8186    0.8496   -3.7029 C   0  0
   -3.3618    0.8152   -2.2510 C   0  0
   -2.4865    1.7351   -1.7615 C   0  0
   -2.0111    1.7978   -0.2950 C   0  0  1  0  0  0
   -2.9719    0.9959    0.5952 C   0  0
   -3.0449   -0.3630   -0.1181 N   0  3  2  0  0  0
   -3.9476   -0.2967   -1.3593 C   0  0
   -3.0064   -1.5957    0.7814 C   0  0
   -1.6995   -1.4779    1.5631 C   0  0
   -0.4823   -0.8339    1.2113 C   0  0
    0.3057   -0.8666    2.3452 N   0  0
   -0.2646   -1.5845    3.3655 C   0  0
    0.2085   -1.9026    4.6433 C   0  0
   -0.6354   -2.6545    5.4606 C   0  0
   -1.8932   -3.0679    5.0306 C   0  0
   -2.3594   -2.7434    3.7577 C   0  0
   -1.5391   -1.9937    2.8962 C   0  0
    0.0615   -0.0883   -0.0689 C   0  0  2  0  0  0
   -0.4956    1.4136   -0.1039 C   0  0
   -0.2830   -0.7785   -1.4330 C   0  0
   -0.1051   -0.1924   -2.5052 O   0  0
   -0.7546   -2.0434   -1.3235 O   0  0
   -1.0750   -2.8050   -2.4774 C   0  0
    1.6419   -0.1312   -0.0570 C   0  0
    2.3984    1.0579   -0.0640 C   0  0
    3.7909    1.0449   -0.0768 C   0  0
    4.4704   -0.1723   -0.0767 C   0  0
    3.7584   -1.3638    0.0043 C   0  0
    2.3521   -1.3624    0.0066 C   0  0
    1.6184   -2.5338    0.0924 O   0  0
    2.2754   -3.7926    0.1855 C   0  0
    5.8429    0.1010   -0.0201 N   0  0
    6.8390   -0.8309   -0.5378 C   0  0
    5.9806    1.4497   -0.5829 C   0  0  2  0  0  0
    7.3129    2.2947   -0.5709 C   0  0  2  0  0  0
    7.9485    2.0539    0.6832 O   0  0
    7.0202    3.8413   -0.8174 C   0  0  2  0  0  0
    7.1027    4.6212    0.3891 O   0  0
    8.2482    5.2116    0.8064 C   0  0
    9.3434    5.1634    0.2453 O   0  0
    8.0546    5.9797    2.1070 C   0  0
    5.6679    4.1801   -1.5734 C   0  0  2  0  0  0
    5.7697    3.7806   -3.0867 C   0  0
    6.9190    4.3784   -3.9286 C   0  0
    5.4445    5.7087   -1.5868 C   0  0
    4.3477    6.3300   -1.1222 C   0  0
    3.2005    5.5739   -0.4916 C   0  0
    3.6081    4.2737    0.0265 N   0  0  2  0  0  0
    4.1530    4.1469    1.3641 C   0  0
    4.8273    2.7744    1.4226 C   0  0
    4.7681    2.2078   -0.0268 C   0  0  2  0  0  0
    4.4167    3.4542   -0.8804 C   0  0  2  0  0  0
    8.3325    1.8452   -1.6630 C   0  0
    7.9940    1.1756   -2.6426 O   0  0
    9.5949    2.2952   -1.4405 O   0  0
   10.6403    2.0055   -2.3560 C   0  0
   -3.6136   -0.2055   -5.5945 H   0  0
   -3.6758   -1.2743   -4.2024 H   0  0
   -2.2081   -0.3569   -4.5471 H   0  0
   -3.5053    1.7869   -4.1657 H   0  0
   -4.9090    0.8606   -3.7210 H   0  0
   -2.1046    2.4822   -2.4428 H   0  0
   -2.1106    2.8433    0.0007 H   0  0
   -2.6309    0.8957    1.6258 H   0  0
   -3.9831    1.4074    0.6085 H   0  0
   -4.9632   -0.0950   -1.0164 H   0  0
   -3.8956   -1.2809   -1.8253 H   0  0
   -3.9152   -1.5315    1.3813 H   0  0
   -3.0530   -2.4621    0.1213 H   0  0
    1.2203   -0.4385    2.3576 H   0  0
    1.1808   -1.5842    4.9899 H   0  0
   -0.3064   -2.9209    6.4546 H   0  0
   -2.5178   -3.6464    5.6958 H   0  0
   -3.3401   -3.0689    3.4433 H   0  0
    0.0225    1.9687   -0.8876 H   0  0
   -0.1795    1.8861    0.8281 H   0  0
   -1.3916   -3.8053   -2.1824 H   0  0
   -0.2110   -2.9030   -3.1364 H   0  0
   -1.8883   -2.3428   -3.0366 H   0  0
    1.9309    2.0273   -0.0464 H   0  0
    4.3101   -2.2890    0.0647 H   0  0
    1.5263   -4.5821    0.2462 H   0  0
    2.8935   -3.8559    1.0824 H   0  0
    2.8910   -3.9892   -0.6934 H   0  0
    6.6818   -1.8216   -0.1109 H   0  0
    7.8503   -0.5267   -0.2703 H   0  0
    6.7701   -0.9230   -1.6224 H   0  0
    5.7589    1.2948   -1.6413 H   0  0
    8.0126    1.1049    0.8135 H   0  0
    7.8118    4.2617   -1.4392 H   0  0
    7.6391    5.3265    2.8743 H   0  0
    7.3715    6.8149    1.9532 H   0  0
    9.0053    6.3733    2.4676 H   0  0
    5.8201    2.6998   -3.1907 H   0  0
    4.8336    4.0485   -3.5804 H   0  0
    6.8463    4.0354   -4.9610 H   0  0
    7.9005    4.0758   -3.5676 H   0  0
    6.8898    5.4670   -3.9555 H   0  0
    6.2158    6.3415   -2.0006 H   0  0
    4.2898    7.4050   -1.2063 H   0  0
    2.7906    6.1718    0.3233 H   0  0
    2.4129    5.4721   -1.2389 H   0  0
    4.8577    4.9523    1.5737 H   0  0
    3.3584    4.2615    2.1021 H   0  0
    5.8455    2.9176    1.7732 H   0  0
    4.3172    2.1321    2.1428 H   0  0
    3.7424    3.1648   -1.6886 H   0  0
   11.5694    2.4602   -2.0122 H   0  0
   10.4133    2.4029   -3.3465 H   0  0
   10.7988    0.9296   -2.4412 H   0  0
   -2.1245   -0.4329   -0.5289 H   0  0
  1  2  1  0
  1 58  1  0
  1 59  1  0
  1 60  1  0
  2  3  1  0
  2 61  1  0
  2 62  1  0
  3  4  2  0
  3  8  1  0
  4  5  1  0
  4 63  1  0
  5  6  1  0
  5 64  1  0
  5 20  1  0
  6  7  1  0
  6 65  1  0
  6 66  1  0
  7  8  1  0
  7  9  1  0
  7112  1  0
  8 67  1  0
  8 68  1  0
  9 10  1  0
  9 69  1  0
  9 70  1  0
 10 11  2  0
 10 18  1  0
 11 12  1  0
 11 19  1  0
 12 13  1  0
 12 71  1  0
 13 14  2  0
 13 18  1  0
 14 15  1  0
 14 72  1  0
 15 16  2  0
 15 73  1  0
 16 17  1  0
 16 74  1  0
 17 18  2  0
 17 75  1  0
 19 20  1  0
 19 21  1  0
 19 25  1  0
 20 76  1  0
 20 77  1  0
 21 22  2  0
 21 23  1  0
 23 24  1  0
 24 78  1  0
 24 79  1  0
 24 80  1  0
 25 26  2  0
 25 30  1  0
 26 27  1  0
 26 81  1  0
 27 28  2  0
 27 52  1  0
 28 29  1  0
 28 33  1  0
 29 30  2  0
 29 82  1  0
 30 31  1  0
 31 32  1  0
 32 83  1  0
 32 84  1  0
 32 85  1  0
 33 34  1  0
 33 35  1  0
 34 86  1  0
 34 87  1  0
 34 88  1  0
 35 36  1  0
 35 89  1  0
 35 52  1  0
 36 37  1  0
 36 38  1  0
 36 54  1  0
 37 90  1  0
 38 39  1  0
 38 43  1  0
 38 91  1  0
 39 40  1  0
 40 41  2  0
 40 42  1  0
 42 92  1  0
 42 93  1  0
 42 94  1  0
 43 44  1  0
 43 46  1  0
 43 53  1  0
 44 45  1  0
 44 95  1  0
 44 96  1  0
 45 97  1  0
 45 98  1  0
 45 99  1  0
 46 47  2  0
 46100  1  0
 47 48  1  0
 47101  1  0
 48 49  1  0
 48102  1  0
 48103  1  0
 49 50  1  0
 49 53  1  0
 50 51  1  0
 50104  1  0
 50105  1  0
 51 52  1  0
 51106  1  0
 51107  1  0
 52 53  1  0
 53108  1  0
 54 55  2  0
 54 56  1  0
 56 57  1  0
 57109  1  0
 57110  1  0
 57111  1  0
M  CHG  1   7   1
M  END
> <Mol2_MolInfo_Name>
14460

> <Mol2_MolInfo_Type>
SMALL

> <Mol2_MolInfo_Charge>
USER_CHARGES

> <Mol2_Substructures>
     1 ****        1 GROUP             0       ****    0 ROOT    

> <Name>
14460

$$$$
14460
  SciTegic06232017503D

112120  0  0  0  0            999 V2000
   -5.1488    0.4102    4.7749 C   0  0
   -3.8524   -0.1137    4.1410 C   0  0
   -3.5479    0.4796    2.7721 C   0  0
   -2.4584    1.2458    2.5575 C   0  0
   -2.0387    1.8431    1.2125 C   0  0  2  0  0  0
   -3.0561    1.5470    0.0669 C   0  0
   -3.8549    0.2328    0.2617 N   0  3  2  0  0  0
   -4.5354    0.1729    1.6502 C   0  0
   -3.0997   -1.0569   -0.1506 C   0  0
   -1.9957   -1.4379    0.8244 C   0  0
   -0.7194   -0.8792    0.9749 C   0  0
   -0.1488   -1.4595    2.0885 N   0  0
   -0.9367   -2.4548    2.6074 C   0  0
   -0.7343   -3.3212    3.6869 C   0  0
   -1.7541   -4.2306    3.9663 C   0  0
   -2.9225   -4.2752    3.2109 C   0  0
   -3.1192   -3.4065    2.1389 C   0  0
   -2.1164   -2.4753    1.8165 C   0  0
    0.0118    0.2783    0.2503 C   0  0  2  0  0  0
   -0.5185    1.6145    0.9175 C   0  0
   -0.2136    0.2676   -1.2981 C   0  0
   -0.4564   -0.7733   -1.9158 O   0  0
   -0.0708    1.4837   -1.8812 O   0  0
   -0.2199    1.6392   -3.2848 C   0  0
    1.5766    0.1312    0.3426 C   0  0
    2.3733    1.2485    0.6589 C   0  0
    3.7611    1.1626    0.7350 C   0  0
    4.3931   -0.0522    0.4730 C   0  0
    3.6349   -1.1810    0.1806 C   0  0
    2.2343   -1.1019    0.0826 C   0  0
    1.4608   -2.1961   -0.2674 O   0  0
    2.0709   -3.4511   -0.5474 C   0  0
    5.7648    0.1187    0.6977 N   0  0
    6.7659   -0.7155    0.0419 C   0  0
    6.0004    1.5538    0.4973 C   0  0  2  0  0  0
    7.3574    2.2927    0.8157 C   0  0  2  0  0  0
    7.8598    1.7328    2.0281 O   0  0
    7.1426    3.8687    0.9133 C   0  0  2  0  0  0
    7.1759    4.3444    2.2719 O   0  0
    8.3099    4.7873    2.8666 C   0  0
    9.4300    4.8436    2.3576 O   0  0
    8.0678    5.2304    4.3035 C   0  0
    5.8665    4.4475    0.1692 C   0  0  2  0  0  0
    6.1522    4.4186   -1.3714 C   0  0
    5.0936    5.0608   -2.2945 C   0  0
    5.7198    5.9460    0.5076 C   0  0
    4.6177    6.5067    1.0333 C   0  0
    3.3912    5.6938    1.3830 C   0  0
    3.6961    4.2844    1.5997 N   0  0  2  0  0  0
    4.1263    3.8142    2.9015 C   0  0
    4.7346    2.4286    2.6765 C   0  0
    4.7738    2.2233    1.1330 C   0  0  2  0  0  0
    4.5373    3.6516    0.5801 C   0  0  2  0  0  0
    8.4613    2.0464   -0.2601 C   0  0
    8.1932    1.6506   -1.3978 O   0  0
    9.7155    2.3351    0.1753 O   0  0
   10.8354    2.1776   -0.6828 C   0  0
   -5.3085   -0.0366    5.7566 H   0  0
   -6.0187    0.1735    4.1613 H   0  0
   -5.1155    1.4923    4.9058 H   0  0
   -3.0229    0.0762    4.8241 H   0  0
   -3.9087   -1.1980    4.0395 H   0  0
   -1.8093    1.4267    3.4025 H   0  0
   -2.1134    2.9185    1.3841 H   0  0
   -3.8404    2.3056    0.0485 H   0  0
   -2.6192    1.5280   -0.9296 H   0  0
   -5.0120   -0.8047    1.7379 H   0  0
   -5.3009    0.9494    1.6215 H   0  0
   -3.8890   -1.8071   -0.2090 H   0  0
   -2.7864   -0.8677   -1.1734 H   0  0
    0.7628   -1.1792    2.4200 H   0  0
    0.1669   -3.2944    4.2820 H   0  0
   -1.6358   -4.9181    4.7911 H   0  0
   -3.6897   -4.9929    3.4621 H   0  0
   -4.0360   -3.4522    1.5702 H   0  0
   -0.1839    2.4772    0.3398 H   0  0
   -0.0022    1.7380    1.8716 H   0  0
   -0.0771    2.6848   -3.5580 H   0  0
   -1.2165    1.3361   -3.6090 H   0  0
    0.5170    1.0429   -3.8246 H   0  0
    1.9309    2.2109    0.8570 H   0  0
    4.1473   -2.1158    0.0159 H   0  0
    1.2981   -4.1736   -0.8089 H   0  0
    2.6039   -3.8394    0.3217 H   0  0
    2.7573   -3.3829   -1.3926 H   0  0
    6.5329   -1.7692    0.1965 H   0  0
    7.7608   -0.5466    0.4528 H   0  0
    6.7892   -0.5363   -1.0337 H   0  0
    5.8645    1.6750   -0.5800 H   0  0
    7.8682    0.7768    1.9404 H   0  0
    7.9895    4.3724    0.4404 H   0  0
    7.7998    4.3733    4.9210 H   0  0
    7.2563    5.9569    4.3456 H   0  0
    8.9638    5.6898    4.7219 H   0  0
    7.1075    4.9055   -1.5769 H   0  0
    6.2809    3.3963   -1.7151 H   0  0
    5.4061    4.9895   -3.3365 H   0  0
    4.9477    6.1189   -2.0773 H   0  0
    4.1255    4.5672   -2.2194 H   0  0
    6.5492    6.6043    0.2914 H   0  0
    4.6112    7.5736    1.2005 H   0  0
    2.9421    6.1060    2.2873 H   0  0
    2.6635    5.8214    0.5812 H   0  0
    4.8464    4.5031    3.3448 H   0  0
    3.2802    3.8003    3.5892 H   0  0
    5.7237    2.4261    3.1254 H   0  0
    4.1386    1.6676    3.1832 H   0  0
    3.9147    3.5910   -0.3112 H   0  0
   11.7473    2.4555   -0.1545 H   0  0
   10.7451    2.8139   -1.5644 H   0  0
   10.9344    1.1419   -1.0108 H   0  0
   -4.6131    0.2977   -0.4027 H   0  0
  1  2  1  0
  1 58  1  0
  1 59  1  0
  1 60  1  0
  2  3  1  0
  2 61  1  0
  2 62  1  0
  3  4  2  0
  3  8  1  0
  4  5  1  0
  4 63  1  0
  5  6  1  0
  5 64  1  0
  5 20  1  0
  6  7  1  0
  6 65  1  0
  6 66  1  0
  7  8  1  0
  7  9  1  0
  7112  1  0
  8 67  1  0
  8 68  1  0
  9 10  1  0
  9 69  1  0
  9 70  1  0
 10 11  2  0
 10 18  1  0
 11 12  1  0
 11 19  1  0
 12 13  1  0
 12 71  1  0
 13 14  2  0
 13 18  1  0
 14 15  1  0
 14 72  1  0
 15 16  2  0
 15 73  1  0
 16 17  1  0
 16 74  1  0
 17 18  2  0
 17 75  1  0
 19 20  1  0
 19 21  1  0
 19 25  1  0
 20 76  1  0
 20 77  1  0
 21 22  2  0
 21 23  1  0
 23 24  1  0
 24 78  1  0
 24 79  1  0
 24 80  1  0
 25 26  2  0
 25 30  1  0
 26 27  1  0
 26 81  1  0
 27 28  2  0
 27 52  1  0
 28 29  1  0
 28 33  1  0
 29 30  2  0
 29 82  1  0
 30 31  1  0
 31 32  1  0
 32 83  1  0
 32 84  1  0
 32 85  1  0
 33 34  1  0
 33 35  1  0
 34 86  1  0
 34 87  1  0
 34 88  1  0
 35 36  1  0
 35 89  1  0
 35 52  1  0
 36 37  1  0
 36 38  1  0
 36 54  1  0
 37 90  1  0
 38 39  1  0
 38 43  1  0
 38 91  1  0
 39 40  1  0
 40 41  2  0
 40 42  1  0
 42 92  1  0
 42 93  1  0
 42 94  1  0
 43 44  1  0
 43 46  1  0
 43 53  1  0
 44 45  1  0
 44 95  1  0
 44 96  1  0
 45 97  1  0
 45 98  1  0
 45 99  1  0
 46 47  2  0
 46100  1  0
 47 48  1  0
 47101  1  0
 48 49  1  0
 48102  1  0
 48103  1  0
 49 50  1  0
 49 53  1  0
 50 51  1  0
 50104  1  0
 50105  1  0
 51 52  1  0
 51106  1  0
 51107  1  0
 52 53  1  0
 53108  1  0
 54 55  2  0
 54 56  1  0
 56 57  1  0
 57109  1  0
 57110  1  0
 57111  1  0
M  CHG  1   7   1
M  END
> <Mol2_MolInfo_Name>
14460

> <Mol2_MolInfo_Type>
SMALL

> <Mol2_MolInfo_Charge>
USER_CHARGES

> <Mol2_Substructures>
     1 ****        1 GROUP             0       ****    0 ROOT    

> <Name>
14460

$$$$
14460
  SciTegic06232017503D

112120  0  0  0  0            999 V2000
   -2.7022    4.9191   -3.2945 C   0  0
   -3.2580    4.7471   -1.8735 C   0  0
   -3.0695    3.3490   -1.3016 C   0  0
   -2.2128    3.1115   -0.2823 C   0  0
   -1.9465    1.7414    0.3449 C   0  0  1  0  0  0
   -3.0501    0.7321   -0.0795 C   0  0
   -3.3501    0.8366   -1.5920 N   0  3  1  0  0  0
   -3.9428    2.2360   -1.8923 C   0  0
   -2.1281    0.5354   -2.4947 C   0  0
   -1.4486   -0.7647   -2.0920 C   0  0
   -0.5675   -1.0284   -1.0239 C   0  0
   -0.1629   -2.3420   -1.1620 N   0  0
   -0.7641   -2.9665   -2.2241 C   0  0
   -0.6563   -4.2764   -2.7040 C   0  0
   -1.4126   -4.6009   -3.8300 C   0  0
   -2.2362   -3.6670   -4.4521 C   0  0
   -2.3358   -2.3631   -3.9697 C   0  0
   -1.5934   -1.9906   -2.8346 C   0  0
    0.0213   -0.1652    0.1389 C   0  0  1  0  0  0
   -0.4577    1.3354    0.0718 C   0  0
   -0.3988   -0.8217    1.5102 C   0  0
   -1.0059   -0.2012    2.3868 O   0  0
    0.0393   -2.0986    1.6563 O   0  0
   -0.2002   -2.8190    2.8563 C   0  0
    1.5965   -0.0935    0.0395 C   0  0
    2.3966   -0.0700    1.2029 C   0  0
    3.7844    0.0146    1.1475 C   0  0
    4.4176    0.1129   -0.0896 C   0  0
    3.6628    0.1029   -1.2577 C   0  0
    2.2572    0.0473   -1.2107 C   0  0
    1.4893    0.1477   -2.3585 O   0  0
    2.1057    0.2613   -3.6368 C   0  0
    5.8005    0.0881    0.1309 N   0  0
    6.7478    0.6896   -0.8018 C   0  0
    5.9699    0.5830    1.5018 C   0  0  2  0  0  0
    7.3265    0.5706    2.3004 C   0  0  2  0  0  0
    7.9266   -0.7043    2.0698 O   0  0
    7.0731    0.8393    3.8530 C   0  0  2  0  0  0
    7.2521   -0.3501    4.6452 O   0  0
    8.4349   -0.6809    5.2161 C   0  0
    9.4909   -0.0534    5.1291 O   0  0
    8.3403   -1.9715    6.0185 C   0  0
    5.6899    1.5175    4.2546 C   0  0  2  0  0  0
    5.6866    3.0461    3.9059 C   0  0
    6.8056    3.9366    4.4917 C   0  0
    5.5137    1.4837    5.7901 C   0  0
    4.4516    0.9697    6.4323 C   0  0
    3.3031    0.3205    5.6947 C   0  0
    3.6921   -0.1617    4.3754 N   0  0  2  0  0  0
    4.2866   -1.4730    4.2154 C   0  0
    4.9116   -1.4901    2.8198 C   0  0
    4.7972   -0.0323    2.2798 C   0  0  2  0  0  0
    4.4488    0.7847    3.5510 C   0  0  2  0  0  0
    8.3590    1.6242    1.7819 C   0  0
    9.5447    1.3435    1.5730 O   0  0
    7.8237    2.8473    1.5746 O   0  0
    8.6223    3.9218    1.1013 C   0  0
   -2.8405    5.9432   -3.6424 H   0  0
   -3.2026    4.2623   -4.0062 H   0  0
   -1.6344    4.6997   -3.3304 H   0  0
   -2.7856    5.4831   -1.2206 H   0  0
   -4.3229    4.9838   -1.8639 H   0  0
   -1.6428    3.9477    0.0973 H   0  0
   -2.0602    1.8753    1.4212 H   0  0
   -2.8419   -0.3097    0.1564 H   0  0
   -3.9985    0.9677    0.4071 H   0  0
   -4.9210    2.2431   -1.4094 H   0  0
   -4.0774    2.3041   -2.9724 H   0  0
   -2.5576    0.4885   -3.4960 H   0  0
   -1.4761    1.4051   -2.4771 H   0  0
    0.4950   -2.7578   -0.5183 H   0  0
   -0.0190   -5.0093   -2.2316 H   0  0
   -1.3571   -5.6024   -4.2314 H   0  0
   -2.8052   -3.9577   -5.3233 H   0  0
   -2.9787   -1.6536   -4.4691 H   0  0
   -0.1316    1.7416   -0.8850 H   0  0
    0.1375    1.9128    0.7834 H   0  0
    0.2406   -3.8132    2.7846 H   0  0
   -1.2699   -2.9328    3.0382 H   0  0
    0.2461   -2.3119    3.7131 H   0  0
    1.9511   -0.1240    2.1838 H   0  0
    4.1812    0.1649   -2.2016 H   0  0
    1.3318    0.3141   -4.4024 H   0  0
    2.7287   -0.6063   -3.8589 H   0  0
    2.7075    1.1679   -3.7128 H   0  0
    6.5285    0.3693   -1.8205 H   0  0
    7.7681    0.3747   -0.5853 H   0  0
    6.6978    1.7790   -0.7771 H   0  0
    5.7199    1.6413    1.4035 H   0  0
    8.0169   -0.8313    1.1225 H   0  0
    7.8476    1.5125    4.2218 H   0  0
    8.0514   -2.7988    5.3702 H   0  0
    7.5952   -1.8712    6.8078 H   0  0
    9.2993   -2.2119    6.4780 H   0  0
    5.6695    3.1905    2.8292 H   0  0
    4.7364    3.4726    4.2337 H   0  0
    6.6711    4.9697    4.1704 H   0  0
    7.7982    3.6338    4.1634 H   0  0
    6.8001    3.9426    5.5811 H   0  0
    6.2898    1.9087    6.4095 H   0  0
    4.4234    1.0267    7.5104 H   0  0
    2.9318   -0.5168    6.2868 H   0  0
    2.4924    1.0466    5.6263 H   0  0
    5.0284   -1.6596    4.9932 H   0  0
    3.5273   -2.2440    4.3511 H   0  0
    5.9375   -1.8237    2.9364 H   0  0
    4.3967   -2.2124    2.1838 H   0  0
    3.7358    1.5696    3.2924 H   0  0
    8.0097    4.8165    0.9911 H   0  0
    9.0593    3.6867    0.1298 H   0  0
    9.4292    4.1464    1.8005 H   0  0
   -4.0597    0.1484   -1.8008 H   0  0
  1  2  1  0
  1 58  1  0
  1 59  1  0
  1 60  1  0
  2  3  1  0
  2 61  1  0
  2 62  1  0
  3  4  2  0
  3  8  1  0
  4  5  1  0
  4 63  1  0
  5  6  1  0
  5 64  1  0
  5 20  1  0
  6  7  1  0
  6 65  1  0
  6 66  1  0
  7  8  1  0
  7  9  1  0
  7112  1  0
  8 67  1  0
  8 68  1  0
  9 10  1  0
  9 69  1  0
  9 70  1  0
 10 11  2  0
 10 18  1  0
 11 12  1  0
 11 19  1  0
 12 13  1  0
 12 71  1  0
 13 14  2  0
 13 18  1  0
 14 15  1  0
 14 72  1  0
 15 16  2  0
 15 73  1  0
 16 17  1  0
 16 74  1  0
 17 18  2  0
 17 75  1  0
 19 20  1  0
 19 21  1  0
 19 25  1  0
 20 76  1  0
 20 77  1  0
 21 22  2  0
 21 23  1  0
 23 24  1  0
 24 78  1  0
 24 79  1  0
 24 80  1  0
 25 26  2  0
 25 30  1  0
 26 27  1  0
 26 81  1  0
 27 28  2  0
 27 52  1  0
 28 29  1  0
 28 33  1  0
 29 30  2  0
 29 82  1  0
 30 31  1  0
 31 32  1  0
 32 83  1  0
 32 84  1  0
 32 85  1  0
 33 34  1  0
 33 35  1  0
 34 86  1  0
 34 87  1  0
 34 88  1  0
 35 36  1  0
 35 89  1  0
 35 52  1  0
 36 37  1  0
 36 38  1  0
 36 54  1  0
 37 90  1  0
 38 39  1  0
 38 43  1  0
 38 91  1  0
 39 40  1  0
 40 41  2  0
 40 42  1  0
 42 92  1  0
 42 93  1  0
 42 94  1  0
 43 44  1  0
 43 46  1  0
 43 53  1  0
 44 45  1  0
 44 95  1  0
 44 96  1  0
 45 97  1  0
 45 98  1  0
 45 99  1  0
 46 47  2  0
 46100  1  0
 47 48  1  0
 47101  1  0
 48 49  1  0
 48102  1  0
 48103  1  0
 49 50  1  0
 49 53  1  0
 50 51  1  0
 50104  1  0
 50105  1  0
 51 52  1  0
 51106  1  0
 51107  1  0
 52 53  1  0
 53108  1  0
 54 55  2  0
 54 56  1  0
 56 57  1  0
 57109  1  0
 57110  1  0
 57111  1  0
M  CHG  1   7   1
M  END
> <Mol2_MolInfo_Name>
14460

> <Mol2_MolInfo_Type>
SMALL

> <Mol2_MolInfo_Charge>
USER_CHARGES

> <Mol2_Substructures>
     1 ****        1 GROUP             0       ****    0 ROOT    

> <Name>
14460

$$$$
14460
  SciTegic06232017503D

112120  0  0  0  0            999 V2000
   -4.9491    2.1183    3.5679 C   0  0
   -3.4739    1.7490    3.3577 C   0  0
   -3.1418    1.3203    1.9358 C   0  0
   -2.2916    2.0394    1.1535 C   0  0
   -1.9126    1.6709   -0.2969 C   0  0  2  0  0  0
   -2.9208    0.6550   -0.8568 C   0  0
   -2.9500   -0.4330    0.2276 N   0  3  1  0  0  0
   -3.7778    0.0069    1.4439 C   0  0
   -2.9493   -1.8789   -0.2603 C   0  0
   -1.6903   -2.0133   -1.1139 C   0  0
   -0.4587   -1.3070   -1.0440 C   0  0
    0.2602   -1.6897   -2.1602 N   0  0
   -0.3630   -2.6776   -2.8792 C   0  0
    0.0370   -3.3748   -4.0246 C   0  0
   -0.8476   -4.3310   -4.5236 C   0  0
   -2.0756   -4.5788   -3.9167 C   0  0
   -2.4693   -3.8765   -2.7787 C   0  0
   -1.6048   -2.9103   -2.2349 C   0  0
    0.1561   -0.2175   -0.0826 C   0  0  1  0  0  0
   -0.4094    1.2316   -0.4659 C   0  0
   -0.1156   -0.4919    1.4344 C   0  0
   -0.6391   -1.5354    1.8345 O   0  0
    0.2983    0.5172    2.2415 O   0  0
    0.1590    0.4219    3.6513 C   0  0
    1.7325   -0.2943   -0.1823 C   0  0
    2.4894    0.8267   -0.5790 C   0  0
    3.8768    0.7733   -0.6980 C   0  0
    4.5467   -0.4205   -0.4341 C   0  0
    3.8360   -1.5369   -0.0083 C   0  0
    2.4345   -1.5000    0.0967 C   0  0
    1.6969   -2.6150    0.4600 O   0  0
    2.3470   -3.8492    0.7435 C   0  0
    5.9210   -0.1792   -0.5511 N   0  0
    6.8675   -1.2412   -0.8737 C   0  0
    6.0246    0.9692   -1.4594 C   0  0  2  0  0  0
    7.3606    1.7507   -1.7660 C   0  0  2  0  0  0
    8.0760    1.8487   -0.5356 O   0  0
    7.0562    3.1757   -2.4109 C   0  0  2  0  0  0
    7.2570    4.2564   -1.4818 O   0  0
    8.4373    4.9099   -1.3614 C   0  0
    9.4700    4.6791   -1.9916 O   0  0
    8.3752    6.0157   -0.3166 C   0  0
    5.6478    3.3340   -3.1238 C   0  0  2  0  0  0
    5.7045    2.5522   -4.4806 C   0  0
    4.4816    2.6772   -5.4151 C   0  0
    5.4521    4.8087   -3.5360 C   0  0
    4.4048    5.5699   -3.1774 C   0  0
    3.3019    5.0492   -2.2830 C   0  0
    3.7299    3.9216   -1.4632 N   0  0  2  0  0  0
    4.3795    4.1429   -0.1863 C   0  0
    5.0411    2.8169    0.1931 C   0  0
    4.8624    1.8804   -1.0385 C   0  0  2  0  0  0
    4.4510    2.8586   -2.1690 C   0  0  2  0  0  0
    8.3059    0.9951   -2.7523 C   0  0
    7.8991    0.0970   -3.4943 O   0  0
    9.5879    1.4447   -2.7249 O   0  0
   10.5738    0.8802   -3.5764 C   0  0
   -5.1269    2.4319    4.5969 H   0  0
   -5.6066    1.2725    3.3641 H   0  0
   -5.2481    2.9401    2.9163 H   0  0
   -2.8511    2.5971    3.6478 H   0  0
   -3.2036    0.9362    4.0330 H   0  0
   -1.8579    2.9370    1.5709 H   0  0
   -2.0389    2.5871   -0.8757 H   0  0
   -3.9323    1.0584   -0.9344 H   0  0
   -2.6392    0.2499   -1.8288 H   0  0
   -3.6938   -0.7935    2.1803 H   0  0
   -4.8130    0.1135    1.1168 H   0  0
   -2.9475   -2.5051    0.6324 H   0  0
   -3.8920   -1.9918   -0.7976 H   0  0
    1.1696   -1.2963   -2.3551 H   0  0
    0.9855   -3.1887   -4.5067 H   0  0
   -0.5746   -4.8926   -5.4051 H   0  0
   -2.7342   -5.3256   -4.3360 H   0  0
   -3.4277   -4.0793   -2.3240 H   0  0
   -0.1607    1.3953   -1.5160 H   0  0
    0.1552    1.9932    0.0736 H   0  0
    0.5178    1.3378    4.1208 H   0  0
    0.7405   -0.4131    4.0444 H   0  0
   -0.8846    0.2812    3.9350 H   0  0
    2.0253    1.7702   -0.8093 H   0  0
    4.3834   -2.4363    0.2263 H   0  0
    1.5967   -4.5972    0.9993 H   0  0
    3.0244   -3.7586    1.5936 H   0  0
    2.8993   -4.2196   -0.1214 H   0  0
    6.7287   -2.0843   -0.1965 H   0  0
    7.8981   -0.9071   -0.7577 H   0  0
    6.7228   -1.6071   -1.8908 H   0  0
    5.7224    0.5484   -2.4214 H   0  0
    8.1344    0.9724   -0.1477 H   0  0
    7.7880    3.3727   -3.1986 H   0  0
    8.2187    5.5892    0.6742 H   0  0
    7.5544    6.6984   -0.5359 H   0  0
    9.3039    6.5862   -0.3040 H   0  0
    6.5850    2.8631   -5.0464 H   0  0
    5.8488    1.4906   -4.3016 H   0  0
    4.6414    2.1024   -6.3276 H   0  0
    4.2990    3.7088   -5.7158 H   0  0
    3.5702    2.2967   -4.9558 H   0  0
    6.1935    5.2654   -4.1763 H   0  0
    4.3505    6.5819   -3.5508 H   0  0
    2.9660    5.8575   -1.6323 H   0  0
    2.4556    4.7788   -2.9154 H   0  0
    5.1085    4.9510   -0.2568 H   0  0
    3.6487    4.4782    0.5503 H   0  0
    6.0843    3.0213    0.4163 H   0  0
    4.5825    2.4105    1.0962 H   0  0
    3.7087    2.3786   -2.8051 H   0  0
   11.5323    1.3712   -3.4080 H   0  0
   10.3052    1.0102   -4.6259 H   0  0
   10.6982   -0.1856   -3.3790 H   0  0
   -2.0077   -0.3906    0.5900 H   0  0
  1  2  1  0
  1 58  1  0
  1 59  1  0
  1 60  1  0
  2  3  1  0
  2 61  1  0
  2 62  1  0
  3  4  2  0
  3  8  1  0
  4  5  1  0
  4 63  1  0
  5  6  1  0
  5 64  1  0
  5 20  1  0
  6  7  1  0
  6 65  1  0
  6 66  1  0
  7  8  1  0
  7  9  1  0
  7112  1  0
  8 67  1  0
  8 68  1  0
  9 10  1  0
  9 69  1  0
  9 70  1  0
 10 11  2  0
 10 18  1  0
 11 12  1  0
 11 19  1  0
 12 13  1  0
 12 71  1  0
 13 14  2  0
 13 18  1  0
 14 15  1  0
 14 72  1  0
 15 16  2  0
 15 73  1  0
 16 17  1  0
 16 74  1  0
 17 18  2  0
 17 75  1  0
 19 20  1  0
 19 21  1  0
 19 25  1  0
 20 76  1  0
 20 77  1  0
 21 22  2  0
 21 23  1  0
 23 24  1  0
 24 78  1  0
 24 79  1  0
 24 80  1  0
 25 26  2  0
 25 30  1  0
 26 27  1  0
 26 81  1  0
 27 28  2  0
 27 52  1  0
 28 29  1  0
 28 33  1  0
 29 30  2  0
 29 82  1  0
 30 31  1  0
 31 32  1  0
 32 83  1  0
 32 84  1  0
 32 85  1  0
 33 34  1  0
 33 35  1  0
 34 86  1  0
 34 87  1  0
 34 88  1  0
 35 36  1  0
 35 89  1  0
 35 52  1  0
 36 37  1  0
 36 38  1  0
 36 54  1  0
 37 90  1  0
 38 39  1  0
 38 43  1  0
 38 91  1  0
 39 40  1  0
 40 41  2  0
 40 42  1  0
 42 92  1  0
 42 93  1  0
 42 94  1  0
 43 44  1  0
 43 46  1  0
 43 53  1  0
 44 45  1  0
 44 95  1  0
 44 96  1  0
 45 97  1  0
 45 98  1  0
 45 99  1  0
 46 47  2  0
 46100  1  0
 47 48  1  0
 47101  1  0
 48 49  1  0
 48102  1  0
 48103  1  0
 49 50  1  0
 49 53  1  0
 50 51  1  0
 50104  1  0
 50105  1  0
 51 52  1  0
 51106  1  0
 51107  1  0
 52 53  1  0
 53108  1  0
 54 55  2  0
 54 56  1  0
 56 57  1  0
 57109  1  0
 57110  1  0
 57111  1  0
M  CHG  1   7   1
M  END
> <Mol2_MolInfo_Name>
14460

> <Mol2_MolInfo_Type>
SMALL

> <Mol2_MolInfo_Charge>
USER_CHARGES

> <Mol2_Substructures>
     1 ****        1 GROUP             0       ****    0 ROOT    

> <Name>
14460

$$$$
14460
  SciTegic06232017503D

112120  0  0  0  0            999 V2000
    4.0393    4.5131   -2.8259 C   0  0
    3.5687    3.6345   -1.6588 C   0  0
    2.2590    2.9065   -1.9234 C   0  0
    1.1437    3.1512   -1.1836 C   0  0
   -0.2090    2.4395   -1.3839 C   0  0  1  0  0  0
   -0.2435    1.7718   -2.7636 C   0  0
    1.0496    0.9439   -2.7700 N   0  3  2  0  0  0
    2.2719    1.8370   -3.0309 C   0  0
    0.9213   -0.4438   -3.3875 C   0  0
   -0.0966   -1.1761   -2.5129 C   0  0
   -0.4415   -0.9691   -1.1471 C   0  0
   -1.5010   -1.8240   -0.8984 N   0  0
   -1.8014   -2.6282   -1.9686 C   0  0
   -2.7551   -3.6410   -2.1211 C   0  0
   -2.8076   -4.2781   -3.3610 C   0  0
   -1.9551   -3.9234   -4.4028 C   0  0
   -1.0106   -2.9108   -4.2445 C   0  0
   -0.9189   -2.2451   -3.0097 C   0  0
    0.0910    0.0105   -0.0167 C   0  0  1  0  0  0
   -0.5892    1.4504   -0.2228 C   0  0
   -0.3167   -0.5405    1.4004 C   0  0
   -0.9663    0.1250    2.2125 O   0  0
    0.1167   -1.8104    1.6252 O   0  0
   -0.1563   -2.4641    2.8554 C   0  0
    1.6607    0.0501    0.1045 C   0  0
    2.4278   -0.9577   -0.5109 C   0  0
    3.8165   -0.9846   -0.4340 C   0  0
    4.4815   -0.0048    0.2999 C   0  0
    3.7564    0.9992    0.9340 C   0  0
    2.3498    1.0147    0.8863 C   0  0
    1.6069    1.9433    1.5926 O   0  0
    2.2534    2.9308    2.3891 C   0  0
    5.8575   -0.2029    0.1324 N   0  0
    6.8352    0.2552    1.1138 C   0  0
    5.9956   -1.6318   -0.1741 C   0  0  2  0  0  0
    7.3292   -2.3294   -0.6332 C   0  0  2  0  0  0
    7.9112   -1.4768   -1.6195 O   0  0
    7.0304   -3.7933   -1.1966 C   0  0  2  0  0  0
    7.2182   -3.8687   -2.6227 O   0  0
    8.4014   -4.2059   -3.1890 C   0  0
    9.4479   -4.4701   -2.5961 O   0  0
    8.3219   -4.2262   -4.7095 C   0  0
    5.6318   -4.4553   -0.8128 C   0  0  2  0  0  0
    5.7007   -4.9605    0.6695 C   0  0
    4.5444   -5.8552    1.1693 C   0  0
    5.4356   -5.7410   -1.6460 C   0  0
    4.3596   -6.0009   -2.4074 C   0  0
    3.2229   -5.0137   -2.5536 C   0  0
    3.6362   -3.6421   -2.2799 N   0  0  2  0  0  0
    4.2554   -2.8479   -3.3200 C   0  0
    4.8941   -1.6517   -2.6144 C   0  0
    4.7971   -1.9459   -1.0860 C   0  0  2  0  0  0
    4.4104   -3.4468   -1.0505 C   0  0  2  0  0  0
    8.3909   -2.4422    0.5101 C   0  0
    9.5438   -2.0100    0.3946 O   0  0
    7.9191   -3.0443    1.6220 O   0  0
    8.7503   -3.2375    2.7572 C   0  0
    4.9736    5.0179   -2.5790 H   0  0
    3.3018    5.2803   -3.0645 H   0  0
    4.2132    3.9229   -3.7261 H   0  0
    4.3333    2.8906   -1.4308 H   0  0
    3.4792    4.2513   -0.7630 H   0  0
    1.2075    3.8931   -0.4006 H   0  0
   -0.9643    3.2268   -1.3954 H   0  0
   -1.1216    1.1451   -2.9216 H   0  0
   -0.1780    2.4868   -3.5863 H   0  0
    2.1732    2.2453   -4.0376 H   0  0
    3.1473    1.1921   -2.9685 H   0  0
    0.6121   -0.2678   -4.4187 H   0  0
    1.9186   -0.8815   -3.3682 H   0  0
   -1.9513   -1.8479    0.0052 H   0  0
   -3.4235   -3.9244   -1.3211 H   0  0
   -3.5293   -5.0664   -3.5183 H   0  0
   -2.0290   -4.4397   -5.3489 H   0  0
   -0.3594   -2.6465   -5.0646 H   0  0
   -0.5592    2.0441    0.6902 H   0  0
   -1.6588    1.2628   -0.3395 H   0  0
    0.2654   -3.4691    2.8409 H   0  0
   -1.2307   -2.5488    3.0245 H   0  0
    0.2852   -1.9222    3.6931 H   0  0
    1.9534   -1.7550   -1.0582 H   0  0
    4.2974    1.7543    1.4824 H   0  0
    1.4981    3.5563    2.8646 H   0  0
    2.8858    3.5816    1.7834 H   0  0
    2.8527    2.4787    3.1809 H   0  0
    6.6284    1.2865    1.4003 H   0  0
    7.8429    0.2396    0.7001 H   0  0
    6.8117   -0.3537    2.0186 H   0  0
    5.7626   -2.1003    0.7843 H   0  0
    8.0224   -0.6030   -1.2378 H   0  0
    7.7813   -4.4787   -0.7959 H   0  0
    7.9981   -3.2550   -5.0833 H   0  0
    7.6097   -4.9821   -5.0399 H   0  0
    9.2947   -4.4561   -5.1442 H   0  0
    6.6336   -5.5024    0.8359 H   0  0
    5.7289   -4.1144    1.3489 H   0  0
    4.6728   -6.0866    2.2270 H   0  0
    4.5055   -6.8071    0.6400 H   0  0
    3.5736   -5.3728    1.0613 H   0  0
    6.1999   -6.5037   -1.5998 H   0  0
    4.3078   -6.9495   -2.9211 H   0  0
    2.8290   -5.0732   -3.5689 H   0  0
    2.4211   -5.3232   -1.8823 H   0  0
    4.9907   -3.4345   -3.8723 H   0  0
    3.5078   -2.5605   -4.0597 H   0  0
    5.9134   -1.5815   -2.9786 H   0  0
    4.3794   -0.7334   -2.8946 H   0  0
    3.7045   -3.6126   -0.2371 H   0  0
    8.1936   -3.7553    3.5382 H   0  0
    9.0927   -2.2827    3.1587 H   0  0
    9.6233   -3.8416    2.5058 H   0  0
    1.1587    0.6959   -1.7960 H   0  0
  1  2  1  0
  1 58  1  0
  1 59  1  0
  1 60  1  0
  2  3  1  0
  2 61  1  0
  2 62  1  0
  3  4  2  0
  3  8  1  0
  4  5  1  0
  4 63  1  0
  5  6  1  0
  5 64  1  0
  5 20  1  0
  6  7  1  0
  6 65  1  0
  6 66  1  0
  7  8  1  0
  7  9  1  0
  7112  1  0
  8 67  1  0
  8 68  1  0
  9 10  1  0
  9 69  1  0
  9 70  1  0
 10 11  2  0
 10 18  1  0
 11 12  1  0
 11 19  1  0
 12 13  1  0
 12 71  1  0
 13 14  2  0
 13 18  1  0
 14 15  1  0
 14 72  1  0
 15 16  2  0
 15 73  1  0
 16 17  1  0
 16 74  1  0
 17 18  2  0
 17 75  1  0
 19 20  1  0
 19 21  1  0
 19 25  1  0
 20 76  1  0
 20 77  1  0
 21 22  2  0
 21 23  1  0
 23 24  1  0
 24 78  1  0
 24 79  1  0
 24 80  1  0
 25 26  2  0
 25 30  1  0
 26 27  1  0
 26 81  1  0
 27 28  2  0
 27 52  1  0
 28 29  1  0
 28 33  1  0
 29 30  2  0
 29 82  1  0
 30 31  1  0
 31 32  1  0
 32 83  1  0
 32 84  1  0
 32 85  1  0
 33 34  1  0
 33 35  1  0
 34 86  1  0
 34 87  1  0
 34 88  1  0
 35 36  1  0
 35 89  1  0
 35 52  1  0
 36 37  1  0
 36 38  1  0
 36 54  1  0
 37 90  1  0
 38 39  1  0
 38 43  1  0
 38 91  1  0
 39 40  1  0
 40 41  2  0
 40 42  1  0
 42 92  1  0
 42 93  1  0
 42 94  1  0
 43 44  1  0
 43 46  1  0
 43 53  1  0
 44 45  1  0
 44 95  1  0
 44 96  1  0
 45 97  1  0
 45 98  1  0
 45 99  1  0
 46 47  2  0
 46100  1  0
 47 48  1  0
 47101  1  0
 48 49  1  0
 48102  1  0
 48103  1  0
 49 50  1  0
 49 53  1  0
 50 51  1  0
 50104  1  0
 50105  1  0
 51 52  1  0
 51106  1  0
 51107  1  0
 52 53  1  0
 53108  1  0
 54 55  2  0
 54 56  1  0
 56 57  1  0
 57109  1  0
 57110  1  0
 57111  1  0
M  CHG  1   7   1
M  END
> <Mol2_MolInfo_Name>
14460

> <Mol2_MolInfo_Type>
SMALL

> <Mol2_MolInfo_Charge>
USER_CHARGES

> <Mol2_Substructures>
     1 ****        1 GROUP             0       ****    0 ROOT    

> <Name>
14460

$$$$
14460
  SciTegic06232017503D

112120  0  0  0  0            999 V2000
   -3.8320    4.8939   -1.8479 C   0  0
   -2.3523    5.1383   -2.1768 C   0  0
   -1.5194    3.8663   -2.2522 C   0  0
   -0.5943    3.5729   -1.3095 C   0  0
    0.2722    2.3130   -1.2872 C   0  0  2  0  0  0
    0.2676    1.6584   -2.6956 C   0  0
   -1.1630    1.5506   -3.2677 N   0  3  2  0  0  0
   -1.7334    2.9751   -3.4830 C   0  0
   -2.1241    0.6682   -2.4316 C   0  0
   -1.4859   -0.6609   -2.0333 C   0  0
   -0.5325   -0.9494   -1.0340 C   0  0
   -0.3587   -2.3215   -1.0299 N   0  0
   -1.0964   -2.9414   -2.0047 C   0  0
   -1.1940   -4.2895   -2.3658 C   0  0
   -2.0532   -4.6005   -3.4192 C   0  0
   -2.7830   -3.6181   -4.0822 C   0  0
   -2.6804   -2.2769   -3.7166 C   0  0
   -1.8234   -1.9140   -2.6617 C   0  0
    0.2623   -0.0815   -0.0113 C   0  0  1  0  0  0
   -0.1793    1.4298   -0.0816 C   0  0
   -0.1480   -0.6424    1.4029 C   0  0
    0.5986   -1.3694    2.0672 O   0  0
   -1.3977   -0.2784    1.7889 O   0  0
   -1.9269   -0.7040    3.0360 C   0  0
    1.8391   -0.1178   -0.1266 C   0  0
    2.5704    0.5335    0.8893 C   0  0
    3.9598    0.5907    0.8889 C   0  0
    4.6674    0.0144   -0.1623 C   0  0
    3.9849   -0.6527   -1.1734 C   0  0
    2.5774   -0.7076   -1.1912 C   0  0
    1.9073   -1.3262   -2.2305 O   0  0
    2.6167   -1.9197   -3.3138 C   0  0
    6.0337    0.1391    0.1193 N   0  0
    7.0429    0.1567   -0.9340 C   0  0
    6.1282    1.2965    1.0176 C   0  0  2  0  0  0
    7.4385    1.7357    1.7787 C   0  0  2  0  0  0
    8.0908    0.5418    2.2081 O   0  0
    7.0990    2.7138    2.9901 C   0  0  2  0  0  0
    7.1972    2.0614    4.2694 O   0  0
    8.3337    2.0588    5.0062 C   0  0
    9.4038    2.5879    4.7038 O   0  0
    8.1666    1.2956    6.3134 C   0  0
    5.7235    3.4970    2.8903 C   0  0  2  0  0  0
    5.8861    4.6198    1.8092 C   0  0
    4.7134    5.6112    1.6441 C   0  0
    5.4799    4.2608    4.2094 C   0  0
    4.3830    4.1344    4.9747 C   0  0
    3.2628    3.1810    4.6225 C   0  0
    3.7014    2.0995    3.7481 N   0  0  2  0  0  0
    4.2689    0.8862    4.3025 C   0  0
    4.9774    0.1767    3.1470 C   0  0
    4.9061    1.1533    1.9356 C   0  0  2  0  0  0
    4.5045    2.5008    2.5894 C   0  0  2  0  0  0
    8.4632    2.4774    0.8645 C   0  0
    8.1384    2.9819   -0.2139 O   0  0
    9.7150    2.5309    1.3901 O   0  0
   10.7648    3.1914    0.6996 C   0  0
   -4.3772    5.8366   -1.7933 H   0  0
   -3.9441    4.3924   -0.8859 H   0  0
   -4.3177    4.2781   -2.6051 H   0  0
   -2.2684    5.6644   -3.1287 H   0  0
   -1.9343    5.8134   -1.4281 H   0  0
   -0.4857    4.2619   -0.4836 H   0  0
    1.3021    2.6203   -1.0988 H   0  0
    0.8074    2.2770   -3.4147 H   0  0
    0.7168    0.6751   -2.7501 H   0  0
   -2.7780    2.8677   -3.7779 H   0  0
   -1.1663    3.3795   -4.3226 H   0  0
   -2.4886    1.2700   -1.6035 H   0  0
   -2.9728    0.5312   -3.1025 H   0  0
    0.2760   -2.7680   -0.3837 H   0  0
   -0.6342   -5.0610   -1.8574 H   0  0
   -2.1564   -5.6308   -3.7276 H   0  0
   -3.4397   -3.9007   -4.8922 H   0  0
   -3.2562   -1.5315   -4.2446 H   0  0
    0.1729    1.9477    0.8134 H   0  0
   -1.2587    1.4923    0.0367 H   0  0
   -2.9321   -0.3028    3.1660 H   0  0
   -1.3102   -0.3517    3.8643 H   0  0
   -1.9864   -1.7923    3.0851 H   0  0
    2.0458    0.9908    1.7152 H   0  0
    4.5669   -1.1202   -1.9519 H   0  0
    1.9012   -2.3294   -4.0266 H   0  0
    3.2505   -2.7404   -2.9746 H   0  0
    3.2260   -1.1867   -3.8443 H   0  0
    6.9170   -0.7080   -1.5859 H   0  0
    8.0510    0.1011   -0.5243 H   0  0
    6.9569    1.0518   -1.5511 H   0  0
    5.8938    2.1366    0.3594 H   0  0
    8.1741   -0.0471    1.4544 H   0  0
    7.8599    3.4968    3.0389 H   0  0
    7.9844    0.2401    6.1114 H   0  0
    7.3243    1.6924    6.8798 H   0  0
    9.0644    1.3788    6.9264 H   0  0
    6.7839    5.2043    2.0194 H   0  0
    6.0610    4.1822    0.8304 H   0  0
    4.9415    6.3423    0.8680 H   0  0
    4.5169    6.1698    2.5591 H   0  0
    3.7898    5.1132    1.3517 H   0  0
    6.2302    4.9653    4.5401 H   0  0
    4.3012    4.7425    5.8635 H   0  0
    2.8608    2.7563    5.5432 H   0  0
    2.4604    3.7594    4.1637 H   0  0
    4.9579    1.1169    5.1156 H   0  0
    3.4828    0.2797    4.7532 H   0  0
    5.9970   -0.0285    3.4598 H   0  0
    4.4960   -0.7807    2.9396 H   0  0
    3.8178    3.0284    1.9289 H   0  0
   11.6865    3.1227    1.2772 H   0  0
   10.5329    4.2474    0.5538 H   0  0
   10.9392    2.7363   -0.2764 H   0  0
   -1.0761    1.1161   -4.1757 H   0  0
  1  2  1  0
  1 58  1  0
  1 59  1  0
  1 60  1  0
  2  3  1  0
  2 61  1  0
  2 62  1  0
  3  4  2  0
  3  8  1  0
  4  5  1  0
  4 63  1  0
  5  6  1  0
  5 64  1  0
  5 20  1  0
  6  7  1  0
  6 65  1  0
  6 66  1  0
  7  8  1  0
  7  9  1  0
  7112  1  0
  8 67  1  0
  8 68  1  0
  9 10  1  0
  9 69  1  0
  9 70  1  0
 10 11  2  0
 10 18  1  0
 11 12  1  0
 11 19  1  0
 12 13  1  0
 12 71  1  0
 13 14  2  0
 13 18  1  0
 14 15  1  0
 14 72  1  0
 15 16  2  0
 15 73  1  0
 16 17  1  0
 16 74  1  0
 17 18  2  0
 17 75  1  0
 19 20  1  0
 19 21  1  0
 19 25  1  0
 20 76  1  0
 20 77  1  0
 21 22  2  0
 21 23  1  0
 23 24  1  0
 24 78  1  0
 24 79  1  0
 24 80  1  0
 25 26  2  0
 25 30  1  0
 26 27  1  0
 26 81  1  0
 27 28  2  0
 27 52  1  0
 28 29  1  0
 28 33  1  0
 29 30  2  0
 29 82  1  0
 30 31  1  0
 31 32  1  0
 32 83  1  0
 32 84  1  0
 32 85  1  0
 33 34  1  0
 33 35  1  0
 34 86  1  0
 34 87  1  0
 34 88  1  0
 35 36  1  0
 35 89  1  0
 35 52  1  0
 36 37  1  0
 36 38  1  0
 36 54  1  0
 37 90  1  0
 38 39  1  0
 38 43  1  0
 38 91  1  0
 39 40  1  0
 40 41  2  0
 40 42  1  0
 42 92  1  0
 42 93  1  0
 42 94  1  0
 43 44  1  0
 43 46  1  0
 43 53  1  0
 44 45  1  0
 44 95  1  0
 44 96  1  0
 45 97  1  0
 45 98  1  0
 45 99  1  0
 46 47  2  0
 46100  1  0
 47 48  1  0
 47101  1  0
 48 49  1  0
 48102  1  0
 48103  1  0
 49 50  1  0
 49 53  1  0
 50 51  1  0
 50104  1  0
 50105  1  0
 51 52  1  0
 51106  1  0
 51107  1  0
 52 53  1  0
 53108  1  0
 54 55  2  0
 54 56  1  0
 56 57  1  0
 57109  1  0
 57110  1  0
 57111  1  0
M  CHG  1   7   1
M  END
> <Mol2_MolInfo_Name>
14460

> <Mol2_MolInfo_Type>
SMALL

> <Mol2_MolInfo_Charge>
USER_CHARGES

> <Mol2_Substructures>
     1 ****        1 GROUP             0       ****    0 ROOT    

> <Name>
14460

$$$$
14460
  SciTegic06232017503D

112120  0  0  0  0            999 V2000
   -2.1667    6.0887    3.2664 C   0  0
   -2.4488    5.0301    2.1901 C   0  0
   -1.5580    3.7986    2.2823 C   0  0
   -0.6841    3.4843    1.2983 C   0  0
    0.2207    2.2519    1.2847 C   0  0  1  0  0  0
    0.3053    1.6563    2.7168 C   0  0
   -1.0920    1.5298    3.3613 N   0  3  1  0  0  0
   -1.6927    2.9457    3.5509 C   0  0
   -2.0640    0.5882    2.6061 C   0  0
   -1.4084   -0.7391    2.2283 C   0  0
   -0.4922   -1.0421    1.1986 C   0  0
   -0.2870   -2.4095    1.2343 N   0  0
   -0.9649   -3.0099    2.2630 C   0  0
   -1.0138   -4.3459    2.6751 C   0  0
   -1.8143   -4.6372    3.7792 C   0  0
   -2.5352   -3.6479    4.4416 C   0  0
   -2.4830   -2.3192    4.0234 C   0  0
   -1.6853   -1.9757    2.9166 C   0  0
    0.2413   -0.1930    0.1158 C   0  0  2  0  0  0
   -0.2537    1.3030    0.1391 C   0  0
   -0.1818   -0.8260   -1.2632 C   0  0
    0.5744   -1.5539   -1.9153 O   0  0
   -1.4517   -0.5210   -1.6328 O   0  0
   -1.9940   -1.0170   -2.8481 C   0  0
    1.8205   -0.1673    0.1882 C   0  0
    2.4997    0.4827   -0.8634 C   0  0
    3.8860    0.6039   -0.9021 C   0  0
    4.6360    0.0921    0.1429 C   0  0
    4.0103   -0.5717    1.1929 C   0  0
    2.6089   -0.6926    1.2492 C   0  0
    1.9937   -1.3153    2.3196 O   0  0
    2.7548   -1.8394    3.4033 C   0  0
    5.9807    0.2353   -0.1902 N   0  0
    7.0449    0.3013    0.8104 C   0  0
    6.1408    1.2171   -1.2791 C   0  0  1  0  0  0
    7.3346    0.9816   -2.2897 C   0  0  1  0  0  0
    8.5561    1.0073   -1.5640 O   0  0
    7.1372   -0.4085   -2.9906 C   0  0  2  0  0  0
    8.2179   -0.7410   -3.8855 O   0  0
    9.2988   -1.4637   -3.5061 C   0  0
    9.5134   -1.9314   -2.3871 O   0  0
   10.2840   -1.6648   -4.6497 C   0  0
    5.7062   -0.6978   -3.6247 C   0  0  2  0  0  0
    5.1779   -2.0516   -3.0420 C   0  0
    6.0326   -3.3190   -3.2578 C   0  0
    5.7813   -0.9039   -5.1580 C   0  0
    5.0983   -0.1867   -6.0689 C   0  0
    4.1797    0.9509   -5.6777 C   0  0
    4.5185    1.4845   -4.3651 N   0  0  1  0  0  0
    3.7013    2.5202   -3.7719 C   0  0
    4.2677    2.6587   -2.3636 C   0  0
    4.7527    1.2344   -1.9767 C   0  0  2  0  0  0
    4.6512    0.4602   -3.3269 C   0  0  2  0  0  0
    7.5008    2.1641   -3.2927 C   0  0
    7.5055    1.9973   -4.5155 O   0  0
    7.6434    3.3683   -2.6807 O   0  0
    7.7952    4.5542   -3.4470 C   0  0
   -2.8164    6.9550    3.1377 H   0  0
   -1.1353    6.4398    3.2155 H   0  0
   -2.3382    5.6969    4.2693 H   0  0
   -3.4880    4.7064    2.2591 H   0  0
   -2.3472    5.4935    1.2072 H   0  0
   -0.6431    4.1365    0.4372 H   0  0
    1.2296    2.5843    1.0356 H   0  0
    0.7854    0.6893    2.7897 H   0  0
    0.8597    2.3195    3.3834 H   0  0
   -1.1007    3.3931    4.3505 H   0  0
   -2.7225    2.8255    3.8914 H   0  0
   -2.8761    0.4555    3.3213 H   0  0
   -2.4841    1.1465    1.7739 H   0  0
    0.3275   -2.8656    0.5752 H   0  0
   -0.4603   -5.1226    2.1680 H   0  0
   -1.8783   -5.6573    4.1291 H   0  0
   -3.1453   -3.9153    5.2923 H   0  0
   -3.0514   -1.5686    4.5519 H   0  0
   -1.3392    1.3211    0.0665 H   0  0
    0.0396    1.7929   -0.7921 H   0  0
   -3.0173   -0.6613   -2.9688 H   0  0
   -2.0105   -2.1077   -2.8535 H   0  0
   -1.4119   -0.6744   -3.7048 H   0  0
    1.9344    0.8993   -1.6838 H   0  0
    4.6307   -0.9980    1.9649 H   0  0
    2.0756   -2.2728    4.1375 H   0  0
    3.3281   -1.0587    3.9054 H   0  0
    3.4301   -2.6303    3.0737 H   0  0
    6.7390   -0.1812    1.7386 H   0  0
    7.3147    1.3306    1.0502 H   0  0
    7.9332   -0.2288    0.4692 H   0  0
    6.2772    2.1847   -0.7902 H   0  0
    8.6081    1.8380   -1.0860 H   0  0
    7.2292   -1.1129   -2.1624 H   0  0
   10.6788   -0.7043   -4.9807 H   0  0
    9.7913   -2.1484   -5.4933 H   0  0
   11.1191   -2.2898   -4.3334 H   0  0
    5.0232   -1.9367   -1.9686 H   0  0
    4.1837   -2.2531   -3.4452 H   0  0
    5.5485   -4.1835   -2.8027 H   0  0
    7.0180   -3.2343   -2.8026 H   0  0
    6.1679   -3.5510   -4.3136 H   0  0
    6.4179   -1.6838   -5.5488 H   0  0
    5.2119   -0.4384   -7.1130 H   0  0
    4.2935    1.7426   -6.4185 H   0  0
    3.1522    0.5883   -5.7296 H   0  0
    3.8010    3.4291   -4.3665 H   0  0
    2.6410    2.2635   -3.8023 H   0  0
    5.0699    3.3942   -2.3972 H   0  0
    3.5019    3.0525   -1.6939 H   0  0
    3.6759   -0.0333   -3.3545 H   0  0
    7.8876    5.4145   -2.7843 H   0  0
    6.9314    4.7144   -4.0938 H   0  0
    8.6898    4.5062   -4.0697 H   0  0
   -0.9488    1.1337    4.2796 H   0  0
  1  2  1  0
  1 58  1  0
  1 59  1  0
  1 60  1  0
  2  3  1  0
  2 61  1  0
  2 62  1  0
  3  4  2  0
  3  8  1  0
  4  5  1  0
  4 63  1  0
  5  6  1  0
  5 64  1  0
  5 20  1  0
  6  7  1  0
  6 65  1  0
  6 66  1  0
  7  8  1  0
  7  9  1  0
  7112  1  0
  8 67  1  0
  8 68  1  0
  9 10  1  0
  9 69  1  0
  9 70  1  0
 10 11  2  0
 10 18  1  0
 11 12  1  0
 11 19  1  0
 12 13  1  0
 12 71  1  0
 13 14  2  0
 13 18  1  0
 14 15  1  0
 14 72  1  0
 15 16  2  0
 15 73  1  0
 16 17  1  0
 16 74  1  0
 17 18  2  0
 17 75  1  0
 19 20  1  0
 19 21  1  0
 19 25  1  0
 20 76  1  0
 20 77  1  0
 21 22  2  0
 21 23  1  0
 23 24  1  0
 24 78  1  0
 24 79  1  0
 24 80  1  0
 25 26  2  0
 25 30  1  0
 26 27  1  0
 26 81  1  0
 27 28  2  0
 27 52  1  0
 28 29  1  0
 28 33  1  0
 29 30  2  0
 29 82  1  0
 30 31  1  0
 31 32  1  0
 32 83  1  0
 32 84  1  0
 32 85  1  0
 33 34  1  0
 33 35  1  0
 34 86  1  0
 34 87  1  0
 34 88  1  0
 35 36  1  0
 35 89  1  0
 35 52  1  0
 36 37  1  0
 36 38  1  0
 36 54  1  0
 37 90  1  0
 38 39  1  0
 38 43  1  0
 38 91  1  0
 39 40  1  0
 40 41  2  0
 40 42  1  0
 42 92  1  0
 42 93  1  0
 42 94  1  0
 43 44  1  0
 43 46  1  0
 43 53  1  0
 44 45  1  0
 44 95  1  0
 44 96  1  0
 45 97  1  0
 45 98  1  0
 45 99  1  0
 46 47  2  0
 46100  1  0
 47 48  1  0
 47101  1  0
 48 49  1  0
 48102  1  0
 48103  1  0
 49 50  1  0
 49 53  1  0
 50 51  1  0
 50104  1  0
 50105  1  0
 51 52  1  0
 51106  1  0
 51107  1  0
 52 53  1  0
 53108  1  0
 54 55  2  0
 54 56  1  0
 56 57  1  0
 57109  1  0
 57110  1  0
 57111  1  0
M  CHG  1   7   1
M  END
> <Mol2_MolInfo_Name>
14460

> <Mol2_MolInfo_Type>
SMALL

> <Mol2_MolInfo_Charge>
USER_CHARGES

> <Mol2_Substructures>
     1 ****        1 GROUP             0       ****    0 ROOT    

> <Name>
14460

$$$$
14460
  SciTegic06232017503D

112120  0  0  0  0            999 V2000
    3.4029    4.9028    2.7421 C   0  0
    3.1163    3.9425    1.5793 C   0  0
    1.8307    3.1443    1.7389 C   0  0
    0.8002    3.2643    0.8593 C   0  0
   -0.5180    2.4705    0.9491 C   0  0  2  0  0  0
   -0.6815    1.8991    2.3621 C   0  0
    0.6466    1.1602    2.5785 N   0  3  1  0  0  0
    1.7769    2.1472    2.9096 C   0  0
    0.5265   -0.1919    3.2730 C   0  0
   -0.3502   -1.0411    2.3571 C   0  0
   -0.5372   -0.9538    0.9518 C   0  0
   -1.5230   -1.8758    0.6473 N   0  0
   -1.9179   -2.6113    1.7364 C   0  0
   -2.8419   -3.6551    1.8574 C   0  0
   -3.0165   -4.2003    3.1294 C   0  0
   -2.3091   -3.7282    4.2314 C   0  0
   -1.3937   -2.6849    4.1042 C   0  0
   -1.1822   -2.1089    2.8394 C   0  0
    0.0897   -0.0316   -0.1732 C   0  0  2  0  0  0
   -0.6839    1.3775   -0.1693 C   0  0
   -0.1041   -0.7048   -1.5835 C   0  0
   -0.6601   -0.1310   -2.5249 O   0  0
    0.3994   -1.9671   -1.6488 O   0  0
    0.3255   -2.7179   -2.8514 C   0  0
    1.6602    0.0752   -0.0950 C   0  0
    2.3904   -0.8987    0.6202 C   0  0
    3.7853   -0.9025    0.6685 C   0  0
    4.4822    0.0965   -0.0030 C   0  0
    3.8018    1.0400   -0.7639 C   0  0
    2.3984    1.0309   -0.8397 C   0  0
    1.7096    1.8982   -1.6680 O   0  0
    2.4077    2.8682   -2.4422 C   0  0
    5.8357   -0.2286    0.0529 N   0  0
    6.9250    0.6891   -0.2611 C   0  0
    6.0679   -1.1298    1.1927 C   0  0  1  0  0  0
    6.5688   -0.5318    2.5707 C   0  0  1  0  0  0
    5.8588    0.6762    2.8271 O   0  0
    6.3722   -1.5693    3.7324 C   0  0  2  0  0  0
    7.1737   -2.7430    3.4837 O   0  0
    8.0904   -3.2058    4.3667 C   0  0
    8.3645   -2.7146    5.4620 O   0  0
    8.7932   -4.4577    3.8597 C   0  0
    4.8883   -1.9989    3.9949 C   0  0  2  0  0  0
    4.0181   -0.8431    4.5842 C   0  0
    4.5840   -0.0506    5.7814 C   0  0
    4.8312   -3.0881    5.0917 C   0  0
    4.3323   -4.3236    4.9114 C   0  0
    3.8186   -4.7883    3.5669 C   0  0
    4.4084   -4.0139    2.4821 N   0  0  1  0  0  0
    4.0280   -4.2809    1.1153 C   0  0
    4.7874   -3.2047    0.3609 C   0  0
    4.7363   -1.9385    1.2640 C   0  0  2  0  0  0
    4.2837   -2.5605    2.6400 C   0  0  2  0  0  0
    8.0877   -0.1555    2.5528 C   0  0
    8.8837   -0.7141    1.7926 O   0  0
    8.4345    0.7891    3.4676 O   0  0
    9.7825    1.2177    3.5903 C   0  0
    4.3274    5.4547    2.5697 H   0  0
    3.5118    4.3673    3.6858 H   0  0
    2.6001    5.6317    2.8592 H   0  0
    3.0914    4.5096    0.6474 H   0  0
    3.9431    3.2381    1.4764 H   0  0
    0.9114    3.9606    0.0404 H   0  0
   -1.3177    3.1993    0.8080 H   0  0
   -0.7555    2.6716    3.1301 H   0  0
   -1.5354    1.2289    2.4642 H   0  0
    2.6928    1.5643    2.9787 H   0  0
    1.5440    2.6074    3.8707 H   0  0
    1.5392   -0.5728    3.3624 H   0  0
    0.1127    0.0254    4.2587 H   0  0
   -1.8572   -1.9902   -0.2987 H   0  0
   -3.3979   -4.0295    1.0103 H   0  0
   -3.7197   -5.0092    3.2641 H   0  0
   -2.4740   -4.1769    5.2002 H   0  0
   -0.8553   -2.3293    4.9703 H   0  0
   -1.7481    1.1318   -0.1749 H   0  0
   -0.5681    1.9042   -1.1159 H   0  0
    0.7844   -3.6957   -2.7051 H   0  0
    0.8544   -2.2117   -3.6605 H   0  0
   -0.7111   -2.8700   -3.1552 H   0  0
    1.8747   -1.7141    1.1004 H   0  0
    4.3802    1.7448   -1.3402 H   0  0
    1.6877    3.4586   -3.0084 H   0  0
    3.0841    2.3992   -3.1582 H   0  0
    2.9708    3.5552   -1.8089 H   0  0
    6.7105    1.2212   -1.1880 H   0  0
    7.8594    0.1490   -0.4115 H   0  0
    7.0624    1.4368    0.5197 H   0  0
    6.8508   -1.8183    0.8717 H   0  0
    6.1420    1.0182    3.6786 H   0  0
    6.7462   -1.1100    4.6488 H   0  0
    8.0636   -5.2341    3.6288 H   0  0
    9.4824   -4.8444    4.6108 H   0  0
    9.3591   -4.2320    2.9559 H   0  0
    3.7654   -0.1440    3.7941 H   0  0
    3.0524   -1.2485    4.8914 H   0  0
    3.8653    0.6996    6.1117 H   0  0
    5.5020    0.4790    5.5298 H   0  0
    4.7914   -0.6933    6.6363 H   0  0
    5.2014   -2.8548    6.0791 H   0  0
    4.3101   -5.0017    5.7517 H   0  0
    4.0980   -5.8351    3.4434 H   0  0
    2.7293   -4.7305    3.5780 H   0  0
    4.3333   -5.2945    0.8528 H   0  0
    2.9446   -4.2516    0.9860 H   0  0
    5.8015   -3.5824    0.2168 H   0  0
    4.3663   -3.0510   -0.6341 H   0  0
    3.2065   -2.4125    2.7380 H   0  0
    9.8595    1.9803    4.3651 H   0  0
   10.1439    1.6464    2.6546 H   0  0
   10.4334    0.3866    3.8655 H   0  0
    0.8849    0.8584    1.6433 H   0  0
  1  2  1  0
  1 58  1  0
  1 59  1  0
  1 60  1  0
  2  3  1  0
  2 61  1  0
  2 62  1  0
  3  4  2  0
  3  8  1  0
  4  5  1  0
  4 63  1  0
  5  6  1  0
  5 64  1  0
  5 20  1  0
  6  7  1  0
  6 65  1  0
  6 66  1  0
  7  8  1  0
  7  9  1  0
  7112  1  0
  8 67  1  0
  8 68  1  0
  9 10  1  0
  9 69  1  0
  9 70  1  0
 10 11  2  0
 10 18  1  0
 11 12  1  0
 11 19  1  0
 12 13  1  0
 12 71  1  0
 13 14  2  0
 13 18  1  0
 14 15  1  0
 14 72  1  0
 15 16  2  0
 15 73  1  0
 16 17  1  0
 16 74  1  0
 17 18  2  0
 17 75  1  0
 19 20  1  0
 19 21  1  0
 19 25  1  0
 20 76  1  0
 20 77  1  0
 21 22  2  0
 21 23  1  0
 23 24  1  0
 24 78  1  0
 24 79  1  0
 24 80  1  0
 25 26  2  0
 25 30  1  0
 26 27  1  0
 26 81  1  0
 27 28  2  0
 27 52  1  0
 28 29  1  0
 28 33  1  0
 29 30  2  0
 29 82  1  0
 30 31  1  0
 31 32  1  0
 32 83  1  0
 32 84  1  0
 32 85  1  0
 33 34  1  0
 33 35  1  0
 34 86  1  0
 34 87  1  0
 34 88  1  0
 35 36  1  0
 35 89  1  0
 35 52  1  0
 36 37  1  0
 36 38  1  0
 36 54  1  0
 37 90  1  0
 38 39  1  0
 38 43  1  0
 38 91  1  0
 39 40  1  0
 40 41  2  0
 40 42  1  0
 42 92  1  0
 42 93  1  0
 42 94  1  0
 43 44  1  0
 43 46  1  0
 43 53  1  0
 44 45  1  0
 44 95  1  0
 44 96  1  0
 45 97  1  0
 45 98  1  0
 45 99  1  0
 46 47  2  0
 46100  1  0
 47 48  1  0
 47101  1  0
 48 49  1  0
 48102  1  0
 48103  1  0
 49 50  1  0
 49 53  1  0
 50 51  1  0
 50104  1  0
 50105  1  0
 51 52  1  0
 51106  1  0
 51107  1  0
 52 53  1  0
 53108  1  0
 54 55  2  0
 54 56  1  0
 56 57  1  0
 57109  1  0
 57110  1  0
 57111  1  0
M  CHG  1   7   1
M  END
> <Mol2_MolInfo_Name>
14460

> <Mol2_MolInfo_Type>
SMALL

> <Mol2_MolInfo_Charge>
USER_CHARGES

> <Mol2_Substructures>
     1 ****        1 GROUP             0       ****    0 ROOT    

> <Name>
14460

$$$$
14460
  SciTegic06232017503D

112120  0  0  0  0            999 V2000
   -3.0385    2.8888   -3.9373 C   0  0
   -3.6714    1.6326   -3.3126 C   0  0
   -3.2973    1.2976   -1.8696 C   0  0
   -2.4682    2.0643   -1.1052 C   0  0
   -2.0694    1.7431    0.3512 C   0  0  1  0  0  0
   -3.0404    0.7120    0.9447 C   0  0
   -3.0437   -0.4017   -0.1125 N   0  3  2  0  0  0
   -3.8988   -0.0122   -1.3268 C   0  0
   -3.0065   -1.8327    0.4161 C   0  0
   -1.7292   -1.9160    1.2494 C   0  0
   -0.5179   -1.1790    1.1418 C   0  0
    0.2333   -1.5228    2.2489 N   0  0
   -0.3514   -2.5085    3.0019 C   0  0
    0.0878   -3.1684    4.1549 C   0  0
   -0.7627   -4.1342    4.6928 C   0  0
   -1.9946   -4.4277    4.1150 C   0  0
   -2.4272   -3.7628    2.9686 C   0  0
   -1.5990   -2.7866    2.3872 C   0  0
    0.0513   -0.0891    0.1513 C   0  0  2  0  0  0
   -0.5531    1.3487    0.5168 C   0  0
   -0.2172   -0.3627   -1.3684 C   0  0
    0.0163    0.5012   -2.2200 O   0  0
   -0.6943   -1.5990   -1.6468 O   0  0
   -0.9651   -1.9903   -2.9844 C   0  0
    1.6305   -0.1057    0.2280 C   0  0
    2.3510    1.0398    0.6238 C   0  0
    3.7448    1.0560    0.6762 C   0  0
    4.4510   -0.0984    0.3530 C   0  0
    3.7752   -1.2690    0.0322 C   0  0
    2.3725   -1.2875   -0.0475 C   0  0
    1.6715   -2.4407   -0.3594 O   0  0
    2.3641   -3.6526   -0.6376 C   0  0
    5.7973    0.1537    0.6165 N   0  0
    6.9015   -0.6699    0.1374 C   0  0
    6.0088    1.6047    0.4890 C   0  0  1  0  0  0
    6.4189    2.1953   -0.9271 C   0  0  1  0  0  0
    5.6690    1.5460   -1.9486 O   0  0
    6.1547    3.7413   -1.0025 C   0  0  2  0  0  0
    7.0330    4.4457   -0.1002 O   0  0
    7.8805    5.4202   -0.5101 C   0  0
    8.0281    5.8259   -1.6632 O   0  0
    8.6804    6.0065    0.6451 C   0  0
    4.6692    4.1774   -0.7255 C   0  0  2  0  0  0
    3.6653    3.7239   -1.8385 C   0  0
    4.0296    4.0538   -3.3015 C   0  0
    4.5694    5.7199   -0.7188 C   0  0
    4.2711    6.4576    0.3650 C   0  0
    4.0132    5.8275    1.7168 C   0  0
    4.5810    4.4862    1.8199 N   0  0  1  0  0  0
    4.2471    3.6938    2.9823 C   0  0
    4.7744    2.3071    2.6453 C   0  0
    4.6916    2.1728    1.0960 C   0  0  2  0  0  0
    4.2405    3.6183    0.6887 C   0  0  2  0  0  0
    7.9245    1.9316   -1.2763 C   0  0
    8.2895    1.5464   -2.3929 O   0  0
    8.7656    2.1629   -0.2382 O   0  0
   10.1659    1.9796   -0.3817 C   0  0
   -3.3703    3.0163   -4.9682 H   0  0
   -1.9498    2.8214   -3.9512 H   0  0
   -3.3175    3.7907   -3.3912 H   0  0
   -4.7573    1.7250   -3.3623 H   0  0
   -3.4115    0.7722   -3.9313 H   0  0
   -2.0505    2.9621   -1.5351 H   0  0
   -2.2173    2.6694    0.9086 H   0  0
   -2.7372    0.3383    1.9228 H   0  0
   -4.0632    1.0862    1.0227 H   0  0
   -4.9310    0.0845   -0.9871 H   0  0
   -3.8130   -0.8338   -2.0389 H   0  0
   -3.9367   -1.9495    0.9738 H   0  0
   -3.0090   -2.4852   -0.4575 H   0  0
    1.1368   -1.1035    2.4162 H   0  0
    1.0397   -2.9468    4.6150 H   0  0
   -0.4592   -4.6670    5.5824 H   0  0
   -2.6259   -5.1803    4.5646 H   0  0
   -3.3884   -4.0005    2.5372 H   0  0
   -0.0121    2.1157   -0.0400 H   0  0
   -0.3052    1.5357    1.5633 H   0  0
   -1.3448   -3.0119   -2.9994 H   0  0
   -0.0603   -1.9553   -3.5930 H   0  0
   -1.7155   -1.3415   -3.4388 H   0  0
    1.8454    1.9448    0.9112 H   0  0
    4.3524   -2.1625   -0.1472 H   0  0
    1.6388   -4.4331   -0.8670 H   0  0
    2.9469   -3.9861    0.2223 H   0  0
    3.0215   -3.5488   -1.5020 H   0  0
    6.7472   -1.7058    0.4394 H   0  0
    7.8507   -0.3436    0.5631 H   0  0
    6.9724   -0.6539   -0.9501 H   0  0
    6.8167    1.8645    1.1731 H   0  0
    5.9214    1.9205   -2.7961 H   0  0
    6.4076    4.0627   -2.0144 H   0  0
    8.0259    6.5829    1.2990 H   0  0
    9.4658    6.6654    0.2739 H   0  0
    9.1441    5.2117    1.2297 H   0  0
    3.4729    2.6549   -1.7621 H   0  0
    2.6880    4.1656   -1.6335 H   0  0
    3.2464    3.7045   -3.9746 H   0  0
    4.9553    3.5729   -3.6148 H   0  0
    4.1373    5.1251   -3.4669 H   0  0
    4.7629    6.2612   -1.6329 H   0  0
    4.2143    7.5311    0.2601 H   0  0
    4.4762    6.4622    2.4731 H   0  0
    2.9365    5.8409    1.8915 H   0  0
    4.7267    4.1339    3.8576 H   0  0
    3.1765    3.7147    3.1943 H   0  0
    5.7939    2.2345    3.0269 H   0  0
    4.1809    1.5567    3.1700 H   0  0
    3.1490    3.6432    0.6751 H   0  0
   10.6673    2.2134    0.5574 H   0  0
   10.5686    2.6360   -1.1545 H   0  0
   10.4008    0.9473   -0.6451 H   0  0
   -2.1060   -0.3417   -0.4841 H   0  0
  1  2  1  0
  1 58  1  0
  1 59  1  0
  1 60  1  0
  2  3  1  0
  2 61  1  0
  2 62  1  0
  3  4  2  0
  3  8  1  0
  4  5  1  0
  4 63  1  0
  5  6  1  0
  5 64  1  0
  5 20  1  0
  6  7  1  0
  6 65  1  0
  6 66  1  0
  7  8  1  0
  7  9  1  0
  7112  1  0
  8 67  1  0
  8 68  1  0
  9 10  1  0
  9 69  1  0
  9 70  1  0
 10 11  2  0
 10 18  1  0
 11 12  1  0
 11 19  1  0
 12 13  1  0
 12 71  1  0
 13 14  2  0
 13 18  1  0
 14 15  1  0
 14 72  1  0
 15 16  2  0
 15 73  1  0
 16 17  1  0
 16 74  1  0
 17 18  2  0
 17 75  1  0
 19 20  1  0
 19 21  1  0
 19 25  1  0
 20 76  1  0
 20 77  1  0
 21 22  2  0
 21 23  1  0
 23 24  1  0
 24 78  1  0
 24 79  1  0
 24 80  1  0
 25 26  2  0
 25 30  1  0
 26 27  1  0
 26 81  1  0
 27 28  2  0
 27 52  1  0
 28 29  1  0
 28 33  1  0
 29 30  2  0
 29 82  1  0
 30 31  1  0
 31 32  1  0
 32 83  1  0
 32 84  1  0
 32 85  1  0
 33 34  1  0
 33 35  1  0
 34 86  1  0
 34 87  1  0
 34 88  1  0
 35 36  1  0
 35 89  1  0
 35 52  1  0
 36 37  1  0
 36 38  1  0
 36 54  1  0
 37 90  1  0
 38 39  1  0
 38 43  1  0
 38 91  1  0
 39 40  1  0
 40 41  2  0
 40 42  1  0
 42 92  1  0
 42 93  1  0
 42 94  1  0
 43 44  1  0
 43 46  1  0
 43 53  1  0
 44 45  1  0
 44 95  1  0
 44 96  1  0
 45 97  1  0
 45 98  1  0
 45 99  1  0
 46 47  2  0
 46100  1  0
 47 48  1  0
 47101  1  0
 48 49  1  0
 48102  1  0
 48103  1  0
 49 50  1  0
 49 53  1  0
 50 51  1  0
 50104  1  0
 50105  1  0
 51 52  1  0
 51106  1  0
 51107  1  0
 52 53  1  0
 53108  1  0
 54 55  2  0
 54 56  1  0
 56 57  1  0
 57109  1  0
 57110  1  0
 57111  1  0
M  CHG  1   7   1
M  END
> <Mol2_MolInfo_Name>
14460

> <Mol2_MolInfo_Type>
SMALL

> <Mol2_MolInfo_Charge>
USER_CHARGES

> <Mol2_Substructures>
     1 ****        1 GROUP             0       ****    0 ROOT    

> <Name>
14460

$$$$
14460
  SciTegic06232017503D

112120  0  0  0  0            999 V2000
   -2.8919    5.2055    2.6758 C   0  0
   -3.4853    4.7844    1.3235 C   0  0
   -3.2230    3.3295    0.9594 C   0  0
   -2.3947    2.9947   -0.0564 C   0  0
   -2.0518    1.5655   -0.4802 C   0  0  2  0  0  0
   -3.0812    0.5708    0.1307 C   0  0
   -3.3355    0.8711    1.6253 N   0  3  2  0  0  0
   -3.9920    2.2683    1.7568 C   0  0
   -2.0772    0.7493    2.5210 C   0  0
   -1.3276   -0.5514    2.2634 C   0  0
   -0.4689   -0.8995    1.2037 C   0  0
    0.0300   -2.1564    1.4838 N   0  0
   -0.4967   -2.6766    2.6372 C   0  0
   -0.2917   -3.9087    3.2672 C   0  0
   -0.9908   -4.1360    4.4523 C   0  0
   -1.8501   -3.1817    4.9890 C   0  0
   -2.0459   -1.9543    4.3579 C   0  0
   -1.3668   -1.6818    3.1568 C   0  0
    0.0158   -0.1723   -0.0896 C   0  0  2  0  0  0
   -0.5352    1.3022   -0.1850 C   0  0
   -0.4633   -0.9220   -1.3943 C   0  0
   -0.4311   -0.3624   -2.4954 O   0  0
   -0.9037   -2.1909   -1.2065 O   0  0
   -1.3640   -2.9714   -2.2998 C   0  0
    1.5920   -0.0913   -0.0295 C   0  0
    2.4144   -0.5748   -1.0713 C   0  0
    3.8044   -0.5770   -0.9772 C   0  0
    4.4115   -0.0411    0.1523 C   0  0
    3.6410    0.5202    1.1630 C   0  0
    2.2365    0.4733    1.1042 C   0  0
    1.4482    0.9694    2.1294 O   0  0
    2.0444    1.5095    3.3036 C   0  0
    5.7879   -0.0570   -0.0772 N   0  0
    6.8017    0.1465    0.9516 C   0  0
    6.0616   -1.1773   -0.9932 C   0  0  1  0  0  0
    6.3464   -2.6118   -0.3629 C   0  0  1  0  0  0
    5.5071   -2.8292    0.7676 O   0  0
    6.0855   -3.7698   -1.3934 C   0  0  2  0  0  0
    7.1014   -3.7755   -2.4192 O   0  0
    7.9065   -4.8407   -2.6538 C   0  0
    7.8980   -5.9132   -2.0490 O   0  0
    8.8804   -4.5812   -3.7951 C   0  0
    4.6593   -3.7686   -2.0626 C   0  0  2  0  0  0
    3.5365   -4.1283   -1.0295 C   0  0
    2.1202   -4.3896   -1.5873 C   0  0
    4.6100   -4.8834   -3.1295 C   0  0
    4.5680   -4.6567   -4.4542 C   0  0
    4.5665   -3.2539   -5.0285 C   0  0
    5.0459   -2.2496   -4.0792 N   0  0  1  0  0  0
    4.8550   -0.8578   -4.4267 C   0  0
    5.0898   -0.0867   -3.1320 C   0  0
    4.8454   -1.0854   -1.9625 C   0  0  2  0  0  0
    4.4346   -2.3693   -2.7534 C   0  0  2  0  0  0
    7.8128   -2.7354    0.1821 C   0  0
    8.0743   -3.2459    1.2775 O   0  0
    8.7460   -2.2286   -0.6617 O   0  0
   10.1261   -2.2721   -0.3316 C   0  0
   -3.0803    6.2620    2.8693 H   0  0
   -1.8121    5.0534    2.6973 H   0  0
   -3.3257    4.6401    3.5007 H   0  0
   -4.5631    4.9521    1.3262 H   0  0
   -3.0865    5.4396    0.5472 H   0  0
   -1.9032    3.7981   -0.5870 H   0  0
   -2.1877    1.5109   -1.5611 H   0  0
   -4.0584    0.6863   -0.3418 H   0  0
   -2.8258   -0.4825    0.0364 H   0  0
   -4.0763    2.4877    2.8219 H   0  0
   -4.9921    2.1527    1.3367 H   0  0
   -1.4823    1.6480    2.3790 H   0  0
   -2.4812    0.8017    3.5325 H   0  0
    0.6903   -2.6092    0.8685 H   0  0
    0.3750   -4.6556    2.8615 H   0  0
   -0.8615   -5.0765    4.9680 H   0  0
   -2.3722   -3.3962    5.9103 H   0  0
   -2.7153   -1.2274    4.7929 H   0  0
    0.0231    1.8234   -0.9663 H   0  0
   -0.2404    1.8541    0.7027 H   0  0
   -1.6492   -3.9639   -1.9511 H   0  0
   -0.5854   -3.0880   -3.0551 H   0  0
   -2.2353   -2.5112   -2.7682 H   0  0
    1.9920   -0.9905   -1.9701 H   0  0
    4.1473    0.9734    2.0009 H   0  0
    1.2583    1.8218    3.9909 H   0  0
    2.6513    2.3872    3.0767 H   0  0
    2.6574    0.7684    3.8188 H   0  0
    6.6270    1.0961    1.4578 H   0  0
    7.8012    0.1863    0.5178 H   0  0
    6.7715   -0.6371    1.7085 H   0  0
    6.9467   -0.9084   -1.5700 H   0  0
    5.7131   -3.6908    1.1383 H   0  0
    6.1758   -4.7097   -0.8438 H   0  0
    8.3375   -4.4589   -4.7324 H   0  0
    9.5767   -5.4127   -3.9059 H   0  0
    9.4538   -3.6739   -3.6043 H   0  0
    3.8393   -4.9982   -0.4444 H   0  0
    3.4114   -3.3178   -0.3158 H   0  0
    1.4188   -4.5769   -0.7737 H   0  0
    2.0904   -5.2605   -2.2418 H   0  0
    1.7385   -3.5363   -2.1462 H   0  0
    4.6252   -5.9140   -2.8039 H   0  0
    4.5261   -5.5040   -5.1225 H   0  0
    5.2222   -3.2531   -5.8997 H   0  0
    3.5566   -3.0454   -5.3848 H   0  0
    5.5582   -0.5888   -5.2159 H   0  0
    3.8632   -0.6798   -4.8467 H   0  0
    6.0962    0.3339   -3.1272 H   0  0
    4.3947    0.7540   -3.1028 H   0  0
    3.3660   -2.3143   -2.9621 H   0  0
   10.7108   -1.8113   -1.1276 H   0  0
   10.4670   -3.3016   -0.2123 H   0  0
   10.3254   -1.7304    0.5942 H   0  0
   -4.0031    0.1862    1.9505 H   0  0
  1  2  1  0
  1 58  1  0
  1 59  1  0
  1 60  1  0
  2  3  1  0
  2 61  1  0
  2 62  1  0
  3  4  2  0
  3  8  1  0
  4  5  1  0
  4 63  1  0
  5  6  1  0
  5 64  1  0
  5 20  1  0
  6  7  1  0
  6 65  1  0
  6 66  1  0
  7  8  1  0
  7  9  1  0
  7112  1  0
  8 67  1  0
  8 68  1  0
  9 10  1  0
  9 69  1  0
  9 70  1  0
 10 11  2  0
 10 18  1  0
 11 12  1  0
 11 19  1  0
 12 13  1  0
 12 71  1  0
 13 14  2  0
 13 18  1  0
 14 15  1  0
 14 72  1  0
 15 16  2  0
 15 73  1  0
 16 17  1  0
 16 74  1  0
 17 18  2  0
 17 75  1  0
 19 20  1  0
 19 21  1  0
 19 25  1  0
 20 76  1  0
 20 77  1  0
 21 22  2  0
 21 23  1  0
 23 24  1  0
 24 78  1  0
 24 79  1  0
 24 80  1  0
 25 26  2  0
 25 30  1  0
 26 27  1  0
 26 81  1  0
 27 28  2  0
 27 52  1  0
 28 29  1  0
 28 33  1  0
 29 30  2  0
 29 82  1  0
 30 31  1  0
 31 32  1  0
 32 83  1  0
 32 84  1  0
 32 85  1  0
 33 34  1  0
 33 35  1  0
 34 86  1  0
 34 87  1  0
 34 88  1  0
 35 36  1  0
 35 89  1  0
 35 52  1  0
 36 37  1  0
 36 38  1  0
 36 54  1  0
 37 90  1  0
 38 39  1  0
 38 43  1  0
 38 91  1  0
 39 40  1  0
 40 41  2  0
 40 42  1  0
 42 92  1  0
 42 93  1  0
 42 94  1  0
 43 44  1  0
 43 46  1  0
 43 53  1  0
 44 45  1  0
 44 95  1  0
 44 96  1  0
 45 97  1  0
 45 98  1  0
 45 99  1  0
 46 47  2  0
 46100  1  0
 47 48  1  0
 47101  1  0
 48 49  1  0
 48102  1  0
 48103  1  0
 49 50  1  0
 49 53  1  0
 50 51  1  0
 50104  1  0
 50105  1  0
 51 52  1  0
 51106  1  0
 51107  1  0
 52 53  1  0
 53108  1  0
 54 55  2  0
 54 56  1  0
 56 57  1  0
 57109  1  0
 57110  1  0
 57111  1  0
M  CHG  1   7   1
M  END
> <Mol2_MolInfo_Name>
14460

> <Mol2_MolInfo_Type>
SMALL

> <Mol2_MolInfo_Charge>
USER_CHARGES

> <Mol2_Substructures>
     1 ****        1 GROUP             0       ****    0 ROOT    

> <Name>
14460

$$$$
14460
  SciTegic06232017503D

112120  0  0  0  0            999 V2000
   -2.7249    5.9042   -0.5297 C   0  0
   -3.4119    4.8196   -1.3788 C   0  0
   -3.1682    3.3599   -0.9956 C   0  0
   -2.3868    2.9742    0.0424 C   0  0
   -2.0878    1.5257    0.4353 C   0  0  1  0  0  0
   -3.0903    0.5648   -0.2602 C   0  0
   -3.2626    0.9266   -1.7532 N   0  3  1  0  0  0
   -3.9055    2.3313   -1.8609 C   0  0
   -1.9548    0.8333   -2.5784 C   0  0
   -1.2543   -0.4935   -2.3286 C   0  0
   -0.4602   -0.8994   -1.2386 C   0  0
   -0.0407   -2.1877   -1.5166 N   0  0
   -0.5179   -2.6490   -2.7156 C   0  0
   -0.3382   -3.8730   -3.3691 C   0  0
   -0.9712   -4.0292   -4.6021 C   0  0
   -1.7459   -3.0162   -5.1598 C   0  0
   -1.9183   -1.7988   -4.5032 C   0  0
   -1.2985   -1.5953   -3.2570 C   0  0
    0.0246   -0.2029    0.0774 C   0  0  1  0  0  0
   -0.5595    1.2540    0.2255 C   0  0
   -0.3857   -1.1193    1.2873 C   0  0
   -1.2457   -0.7907    2.1080 O   0  0
    0.3317   -2.2711    1.3571 O   0  0
    0.1169   -3.1982    2.4109 C   0  0
    1.5919   -0.0236    0.0764 C   0  0
    2.2925   -0.0846   -1.1438 C   0  0
    3.6771    0.0425   -1.2152 C   0  0
    4.3968    0.2853   -0.0567 C   0  0
    3.7402    0.3890    1.1662 C   0  0
    2.3400    0.2762    1.2472 C   0  0
    1.6612    0.4551    2.4414 O   0  0
    2.3721    0.7554    3.6379 C   0  0
    5.7505    0.2224   -0.3794 N   0  0
    6.7874    0.8965    0.4008 C   0  0
    5.9404    0.3518   -1.8363 C   0  0  1  0  0  0
    7.1562   -0.4292   -2.4796 C   0  0  1  0  0  0
    8.3611    0.0291   -1.8813 O   0  0
    6.9661   -1.9666   -2.2264 C   0  0  2  0  0  0
    8.0670   -2.7509   -2.7286 O   0  0
    9.1303   -3.1073   -1.9698 C   0  0
    9.3068   -2.8382   -0.7810 O   0  0
   10.1487   -3.9202   -2.7574 C   0  0
    5.5503   -2.5900   -2.6009 C   0  0  2  0  0  0
    4.9983   -3.3423   -1.3434 C   0  0
    5.8491   -4.4841   -0.7474 C   0  0
    5.6592   -3.6621   -3.7137 C   0  0
    4.9947   -3.6322   -4.8837 C   0  0
    4.0690   -2.4949   -5.2587 C   0  0
    4.3853   -1.2830   -4.5147 N   0  0  1  0  0  0
    3.5556   -0.1070   -4.6612 C   0  0
    4.0965    0.8444   -3.6002 C   0  0
    4.5705   -0.0683   -2.4363 C   0  0  2  0  0  0
    4.4968   -1.4911   -3.0694 C   0  0  2  0  0  0
    7.3544   -0.0688   -3.9841 C   0  0
    7.3807   -0.9268   -4.8708 O   0  0
    7.4990    1.2644   -4.1998 O   0  0
    7.6842    1.7668   -5.5150 C   0  0
   -2.9722    6.8988   -0.9018 H   0  0
   -1.6391    5.8058   -0.5594 H   0  0
   -3.0433    5.8575    0.5124 H   0  0
   -4.4887    4.9937   -1.3630 H   0  0
   -3.1007    4.9450   -2.4168 H   0  0
   -1.8988    3.7386    0.6283 H   0  0
   -2.2913    1.4496    1.5041 H   0  0
   -2.8438   -0.4926   -0.1847 H   0  0
   -4.0895    0.6718    0.1663 H   0  0
   -4.9246    2.2082   -1.4914 H   0  0
   -3.9382    2.5935   -2.9196 H   0  0
   -2.2960    0.9382   -3.6088 H   0  0
   -1.3571    1.7133   -2.3565 H   0  0
    0.5566   -2.6933   -0.8778 H   0  0
    0.2614   -4.6661   -2.9466 H   0  0
   -0.8581   -4.9601   -5.1387 H   0  0
   -2.2200   -3.1766   -6.1173 H   0  0
   -2.5222   -1.0263   -4.9555 H   0  0
   -0.1873    1.8352   -0.6176 H   0  0
   -0.0686    1.7405    1.0703 H   0  0
    0.7935   -4.0458    2.3020 H   0  0
   -0.9065   -3.5755    2.3976 H   0  0
    0.3042   -2.7368    3.3818 H   0  0
    1.7716   -0.2507   -2.0735 H   0  0
    4.3303    0.5557    2.0533 H   0  0
    1.6625    0.8670    4.4574 H   0  0
    2.9247    1.6921    3.5509 H   0  0
    3.0605   -0.0474    3.9059 H   0  0
    6.4563    1.0664    1.4251 H   0  0
    7.0504    1.8667   -0.0229 H   0  0
    7.6850    0.2831    0.4685 H   0  0
    6.0692    1.4206   -2.0236 H   0  0
    8.4221    0.9788   -2.0072 H   0  0
    7.0337   -2.0441   -1.1401 H   0  0
   10.5609   -3.3219   -3.5700 H   0  0
    9.6782   -4.8071   -3.1819 H   0  0
   10.9685   -4.2392   -2.1135 H   0  0
    4.8167   -2.6168   -0.5497 H   0  0
    4.0137   -3.7537   -1.5741 H   0  0
    5.3451   -4.9193    0.1158 H   0  0
    6.8211   -4.1361   -0.4021 H   0  0
    6.0135   -5.2919   -1.4594 H   0  0
    6.3038   -4.5139   -3.5549 H   0  0
    5.1300   -4.4515   -5.5741 H   0  0
    4.1958   -2.2965   -6.3232 H   0  0
    3.0422   -2.8273   -5.0995 H   0  0
    3.6642    0.2743   -5.6773 H   0  0
    2.4961   -0.3442   -4.5481 H   0  0
    4.9026    1.4207   -4.0521 H   0  0
    3.3219    1.5539   -3.3057 H   0  0
    3.5208   -1.9158   -2.8190 H   0  0
    7.7896    2.8513   -5.4867 H   0  0
    6.8304    1.5242   -6.1493 H   0  0
    8.5839    1.3501   -5.9700 H   0  0
   -3.9135    0.2589   -2.1422 H   0  0
  1  2  1  0
  1 58  1  0
  1 59  1  0
  1 60  1  0
  2  3  1  0
  2 61  1  0
  2 62  1  0
  3  4  2  0
  3  8  1  0
  4  5  1  0
  4 63  1  0
  5  6  1  0
  5 64  1  0
  5 20  1  0
  6  7  1  0
  6 65  1  0
  6 66  1  0
  7  8  1  0
  7  9  1  0
  7112  1  0
  8 67  1  0
  8 68  1  0
  9 10  1  0
  9 69  1  0
  9 70  1  0
 10 11  2  0
 10 18  1  0
 11 12  1  0
 11 19  1  0
 12 13  1  0
 12 71  1  0
 13 14  2  0
 13 18  1  0
 14 15  1  0
 14 72  1  0
 15 16  2  0
 15 73  1  0
 16 17  1  0
 16 74  1  0
 17 18  2  0
 17 75  1  0
 19 20  1  0
 19 21  1  0
 19 25  1  0
 20 76  1  0
 20 77  1  0
 21 22  2  0
 21 23  1  0
 23 24  1  0
 24 78  1  0
 24 79  1  0
 24 80  1  0
 25 26  2  0
 25 30  1  0
 26 27  1  0
 26 81  1  0
 27 28  2  0
 27 52  1  0
 28 29  1  0
 28 33  1  0
 29 30  2  0
 29 82  1  0
 30 31  1  0
 31 32  1  0
 32 83  1  0
 32 84  1  0
 32 85  1  0
 33 34  1  0
 33 35  1  0
 34 86  1  0
 34 87  1  0
 34 88  1  0
 35 36  1  0
 35 89  1  0
 35 52  1  0
 36 37  1  0
 36 38  1  0
 36 54  1  0
 37 90  1  0
 38 39  1  0
 38 43  1  0
 38 91  1  0
 39 40  1  0
 40 41  2  0
 40 42  1  0
 42 92  1  0
 42 93  1  0
 42 94  1  0
 43 44  1  0
 43 46  1  0
 43 53  1  0
 44 45  1  0
 44 95  1  0
 44 96  1  0
 45 97  1  0
 45 98  1  0
 45 99  1  0
 46 47  2  0
 46100  1  0
 47 48  1  0
 47101  1  0
 48 49  1  0
 48102  1  0
 48103  1  0
 49 50  1  0
 49 53  1  0
 50 51  1  0
 50104  1  0
 50105  1  0
 51 52  1  0
 51106  1  0
 51107  1  0
 52 53  1  0
 53108  1  0
 54 55  2  0
 54 56  1  0
 56 57  1  0
 57109  1  0
 57110  1  0
 57111  1  0
M  CHG  1   7   1
M  END
> <Mol2_MolInfo_Name>
14460

> <Mol2_MolInfo_Type>
SMALL

> <Mol2_MolInfo_Charge>
USER_CHARGES

> <Mol2_Substructures>
     1 ****        1 GROUP             0       ****    0 ROOT    

> <Name>
14460

$$$$
14460
  SciTegic06232017503D

112120  0  0  0  0            999 V2000
   -3.2688    0.8760    4.2929 C   0  0
   -3.7607    1.7628    3.1405 C   0  0
   -3.3166    1.2981    1.7605 C   0  0
   -2.4244    2.0148    1.0244 C   0  0
   -1.9595    1.6373   -0.3975 C   0  0  2  0  0  0
   -2.9428    0.6326   -1.0152 C   0  0
   -3.0401   -0.4572    0.0635 N   0  3  1  0  0  0
   -3.9341   -0.0105    1.2304 C   0  0
   -3.0370   -1.8984   -0.4394 C   0  0
   -1.7317   -2.0457   -1.2193 C   0  0
   -0.4979   -1.3558   -1.0704 C   0  0
    0.2825   -1.7395   -2.1438 N   0  0
   -0.3091   -2.7118   -2.9085 C   0  0
    0.1504   -3.4021   -4.0354 C   0  0
   -0.7142   -4.3420   -4.5961 C   0  0
   -1.9786   -4.5818   -4.0649 C   0  0
   -2.4311   -3.8861   -2.9448 C   0  0
   -1.5898   -2.9349   -2.3413 C   0  0
    0.0716   -0.2793   -0.0660 C   0  0  1  0  0  0
   -0.4550    1.1790   -0.4710 C   0  0
   -0.2740   -0.5314    1.4417 C   0  0
   -0.0627    0.3348    2.2959 O   0  0
   -0.7881   -1.7563    1.7071 O   0  0
   -1.1058   -2.1429    3.0352 C   0  0
    1.6508   -0.3616   -0.0845 C   0  0
    2.4294    0.7523   -0.4596 C   0  0
    3.8185    0.6868   -0.5541 C   0  0
    4.4657   -0.5055   -0.2478 C   0  0
    3.7396   -1.6120    0.1744 C   0  0
    2.3357   -1.5702    0.2229 C   0  0
    1.5820   -2.6844    0.5521 O   0  0
    2.2171   -3.9240    0.8452 C   0  0
    5.8368   -0.2546   -0.3004 N   0  0
    6.8642   -1.2889   -0.3378 C   0  0
    6.0403    0.8507   -1.2515 C   0  0  1  0  0  0
    6.2542    0.5027   -2.7877 C   0  0  1  0  0  0
    5.3685   -0.5453   -3.1695 O   0  0
    5.9882    1.7513   -3.7026 C   0  0  2  0  0  0
    6.9899    2.7634   -3.4712 O   0  0
    7.7599    3.2766   -4.4609 C   0  0
    7.7235    2.9684   -5.6524 O   0  0
    8.7303    4.3289   -3.9421 C   0  0
    4.5582    2.3907   -3.5570 C   0  0  2  0  0  0
    3.4040    1.4731   -4.0856 C   0  0
    3.5533    0.8864   -5.5054 C   0  0
    4.4657    3.6690   -4.4211 C   0  0
    4.3415    4.9132   -3.9266 C   0  0
    4.2902    5.1828   -2.4379 C   0  0
    4.8507    4.0851   -1.6536 N   0  0  1  0  0  0
    4.6766    4.1216   -0.2182 C   0  0
    5.1075    2.7378    0.2476 C   0  0
    4.8211    1.7672   -0.9359 C   0  0  2  0  0  0
    4.3344    2.7688   -2.0395 C   0  0  2  0  0  0
    7.6961   -0.0348   -3.0867 C   0  0
    7.9026   -1.0141   -3.8128 O   0  0
    8.6730    0.6743   -2.4696 O   0  0
   10.0401    0.3317   -2.6416 C   0  0
   -3.5769    1.2858    5.2551 H   0  0
   -2.1807    0.8039    4.2992 H   0  0
   -3.6736   -0.1338    4.2250 H   0  0
   -4.8502    1.8116    3.1530 H   0  0
   -3.4163    2.7835    3.3151 H   0  0
   -2.0202    2.9181    1.4590 H   0  0
   -2.0391    2.5535   -0.9850 H   0  0
   -3.9451    1.0445   -1.1478 H   0  0
   -2.6103    0.2290   -1.9715 H   0  0
   -3.9038   -0.8172    1.9630 H   0  0
   -4.9465    0.1083    0.8421 H   0  0
   -3.1013   -2.5344    0.4440 H   0  0
   -3.9472   -1.9887   -1.0340 H   0  0
    1.2074   -1.3568   -2.2792 H   0  0
    1.1280   -3.2217   -4.4583 H   0  0
   -0.3962   -4.8969   -5.4669 H   0  0
   -2.6195   -5.3165   -4.5303 H   0  0
   -3.4172   -4.0812   -2.5498 H   0  0
   -0.1390    1.3498   -1.5020 H   0  0
    0.0813    1.9275    0.1145 H   0  0
   -1.4854   -3.1645    3.0407 H   0  0
   -1.8721   -1.4942    3.4591 H   0  0
   -0.2238   -2.1047    3.6760 H   0  0
    1.9747    1.6942   -0.7097 H   0  0
    4.2781   -2.5080    0.4413 H   0  0
    1.4557   -4.6735    1.0609 H   0  0
    2.8603   -3.8457    1.7229 H   0  0
    2.8032   -4.2841   -0.0016 H   0  0
    6.7457   -1.9577    0.5149 H   0  0
    7.8629   -0.8559   -0.2767 H   0  0
    6.7908   -1.8952   -1.2406 H   0  0
    6.9355    1.3833   -0.9299 H   0  0
    5.5185   -0.7478   -4.0961 H   0  0
    6.0976    1.4221   -4.7375 H   0  0
    8.1819    5.1655   -3.5096 H   0  0
    9.3569    4.7081   -4.7494 H   0  0
    9.3764    3.9016   -3.1753 H   0  0
    3.2239    0.6541   -3.3914 H   0  0
    2.4671    2.0329   -4.0563 H   0  0
    2.6829    0.2800   -5.7575 H   0  0
    4.4265    0.2417   -5.5962 H   0  0
    3.6316    1.6636   -6.2648 H   0  0
    4.5186    3.5801   -5.4961 H   0  0
    4.2737    5.7400   -4.6183 H   0  0
    4.8719    6.0845   -2.2436 H   0  0
    3.2538    5.3995   -2.1754 H   0  0
    5.2945    4.9219    0.1909 H   0  0
    3.6516    4.3735    0.0609 H   0  0
    6.1637    2.7814    0.5172 H   0  0
    4.5559    2.4762    1.1522 H   0  0
    3.2534    2.8862   -1.9412 H   0  0
   10.6662    1.0094   -2.0614 H   0  0
   10.3330    0.4111   -3.6894 H   0  0
   10.2352   -0.6867   -2.3021 H   0  0
   -2.1186   -0.4261    0.4771 H   0  0
  1  2  1  0
  1 58  1  0
  1 59  1  0
  1 60  1  0
  2  3  1  0
  2 61  1  0
  2 62  1  0
  3  4  2  0
  3  8  1  0
  4  5  1  0
  4 63  1  0
  5  6  1  0
  5 64  1  0
  5 20  1  0
  6  7  1  0
  6 65  1  0
  6 66  1  0
  7  8  1  0
  7  9  1  0
  7112  1  0
  8 67  1  0
  8 68  1  0
  9 10  1  0
  9 69  1  0
  9 70  1  0
 10 11  2  0
 10 18  1  0
 11 12  1  0
 11 19  1  0
 12 13  1  0
 12 71  1  0
 13 14  2  0
 13 18  1  0
 14 15  1  0
 14 72  1  0
 15 16  2  0
 15 73  1  0
 16 17  1  0
 16 74  1  0
 17 18  2  0
 17 75  1  0
 19 20  1  0
 19 21  1  0
 19 25  1  0
 20 76  1  0
 20 77  1  0
 21 22  2  0
 21 23  1  0
 23 24  1  0
 24 78  1  0
 24 79  1  0
 24 80  1  0
 25 26  2  0
 25 30  1  0
 26 27  1  0
 26 81  1  0
 27 28  2  0
 27 52  1  0
 28 29  1  0
 28 33  1  0
 29 30  2  0
 29 82  1  0
 30 31  1  0
 31 32  1  0
 32 83  1  0
 32 84  1  0
 32 85  1  0
 33 34  1  0
 33 35  1  0
 34 86  1  0
 34 87  1  0
 34 88  1  0
 35 36  1  0
 35 89  1  0
 35 52  1  0
 36 37  1  0
 36 38  1  0
 36 54  1  0
 37 90  1  0
 38 39  1  0
 38 43  1  0
 38 91  1  0
 39 40  1  0
 40 41  2  0
 40 42  1  0
 42 92  1  0
 42 93  1  0
 42 94  1  0
 43 44  1  0
 43 46  1  0
 43 53  1  0
 44 45  1  0
 44 95  1  0
 44 96  1  0
 45 97  1  0
 45 98  1  0
 45 99  1  0
 46 47  2  0
 46100  1  0
 47 48  1  0
 47101  1  0
 48 49  1  0
 48102  1  0
 48103  1  0
 49 50  1  0
 49 53  1  0
 50 51  1  0
 50104  1  0
 50105  1  0
 51 52  1  0
 51106  1  0
 51107  1  0
 52 53  1  0
 53108  1  0
 54 55  2  0
 54 56  1  0
 56 57  1  0
 57109  1  0
 57110  1  0
 57111  1  0
M  CHG  1   7   1
M  END
> <Mol2_MolInfo_Name>
14460

> <Mol2_MolInfo_Type>
SMALL

> <Mol2_MolInfo_Charge>
USER_CHARGES

> <Mol2_Substructures>
     1 ****        1 GROUP             0       ****    0 ROOT    

> <Name>
14460

$$$$
14460
  SciTegic06232017503D

112120  0  0  0  0            999 V2000
    4.0136    4.3362   -3.0368 C   0  0
    3.5563    3.5096   -1.8271 C   0  0
    2.2250    2.8014   -2.0308 C   0  0
    1.1375    3.0921   -1.2668 C   0  0
   -0.2313    2.3951   -1.3979 C   0  0  1  0  0  0
   -0.3194    1.6609   -2.7412 C   0  0
    0.9672    0.8242   -2.7554 N   0  3  2  0  0  0
    2.1840    1.6956   -3.1007 C   0  0
    0.8089   -0.5895   -3.3019 C   0  0
   -0.1606   -1.2814   -2.3416 C   0  0
   -0.4467   -1.0062   -0.9729 C   0  0
   -1.4731   -1.8690   -0.6297 N   0  0
   -1.8138   -2.7280   -1.6427 C   0  0
   -2.7578   -3.7594   -1.6963 C   0  0
   -2.8655   -4.4552   -2.9004 C   0  0
   -2.0737   -4.1396   -4.0010 C   0  0
   -1.1371   -3.1090   -3.9398 C   0  0
   -0.9921   -2.3830   -2.7447 C   0  0
    0.1084    0.0439    0.0823 C   0  0  1  0  0  0
   -0.5889    1.4645   -0.1849 C   0  0
   -0.2633   -0.4281    1.5392 C   0  0
   -0.9524    0.2540    2.3038 O   0  0
    0.2462   -1.6499    1.8553 O   0  0
    0.0287   -2.2127    3.1411 C   0  0
    1.6803    0.1151    0.1632 C   0  0
    2.4569   -0.8743   -0.4699 C   0  0
    3.8462   -0.8975   -0.3837 C   0  0
    4.4937    0.0700    0.3763 C   0  0
    3.7678    1.0796    0.9962 C   0  0
    2.3627    1.0938    0.9349 C   0  0
    1.6137    2.0323    1.6216 O   0  0
    2.2545    3.0373    2.4004 C   0  0
    5.8648   -0.1406    0.2264 N   0  0
    6.8858    0.4390    1.0911 C   0  0
    6.0504   -1.5730   -0.0654 C   0  0  1  0  0  0
    6.2056   -2.5868    1.1505 C   0  0  1  0  0  0
    5.3044   -2.2389    2.1969 O   0  0
    5.9086   -4.0665    0.7094 C   0  0  2  0  0  0
    6.9476   -4.5449   -0.1713 O   0  0
    7.7085   -5.6308    0.1092 C   0  0
    7.6379   -6.3351    1.1166 O   0  0
    8.7184   -5.9211   -0.9926 C   0  0
    4.5038   -4.3070    0.0374 C   0  0  2  0  0  0
    3.3331   -4.1661    1.0706 C   0  0
    1.9265   -4.6053    0.6030 C   0  0
    4.4333   -5.7691   -0.4560 C   0  0
    4.3961   -6.1276   -1.7513 C   0  0
    4.4307   -5.1034   -2.8668 C   0  0
    4.9652   -3.8147   -2.4306 N   0  0  1  0  0  0
    4.8431   -2.6960   -3.3390 C   0  0
    5.1761   -1.4741   -2.4927 C   0  0
    4.8506   -1.8494   -1.0164 C   0  0  2  0  0  0
    4.3611   -3.3252   -1.1888 C   0  0  2  0  0  0
    7.6340   -2.5278    1.7959 C   0  0
    7.8103   -2.5124    3.0197 O   0  0
    8.6361   -2.4918    0.8831 O   0  0
    9.9943   -2.4584    1.2952 C   0  0
    4.9619    4.8328   -2.8303 H   0  0
    3.2841    5.1074   -3.2869 H   0  0
    4.1559    3.7098   -3.9181 H   0  0
    4.3109    2.7572   -1.5934 H   0  0
    3.5044    4.1589   -0.9515 H   0  0
    1.2397    3.8571   -0.5105 H   0  0
   -0.9762    3.1920   -1.4226 H   0  0
   -1.2043    1.0305   -2.8349 H   0  0
   -0.2821    2.3342   -3.5999 H   0  0
    2.0467    2.0696   -4.1161 H   0  0
    3.0555    1.0446   -3.0532 H   0  0
    0.4445   -0.4601   -4.3220 H   0  0
    1.8074   -1.0272   -3.3179 H   0  0
   -1.8787   -1.8550    0.2950 H   0  0
   -3.3791   -4.0125   -0.8495 H   0  0
   -3.5826   -5.2591   -2.9819 H   0  0
   -2.1888   -4.7014   -4.9167 H   0  0
   -0.5331   -2.8763   -4.8043 H   0  0
   -0.5454    2.1046    0.6955 H   0  0
   -1.6591    1.2656   -0.2733 H   0  0
    0.5354   -3.1741    3.2189 H   0  0
   -1.0351   -2.3725    3.3233 H   0  0
    0.4204   -1.5611    3.9238 H   0  0
    1.9846   -1.6678   -1.0201 H   0  0
    4.3073    1.8328    1.5485 H   0  0
    1.4958    3.6711    2.8591 H   0  0
    2.8880    3.6765    1.7835 H   0  0
    2.8511    2.6038    3.2044 H   0  0
    6.7861    1.5245    1.1027 H   0  0
    7.8880    0.2061    0.7298 H   0  0
    6.7858    0.0917    2.1194 H   0  0
    6.9595   -1.6631   -0.6604 H   0  0
    5.4247   -2.8591    2.9202 H   0  0
    5.9376   -4.6806    1.6125 H   0  0
    8.2018   -6.1939   -1.9130 H   0  0
    9.3738   -6.7444   -0.7075 H   0  0
    9.3328   -5.0416   -1.1856 H   0  0
    3.5782   -4.7175    1.9799 H   0  0
    3.2196   -3.1279    1.3729 H   0  0
    1.1955   -4.4552    1.3967 H   0  0
    1.8904   -5.6618    0.3382 H   0  0
    1.5833   -4.0318   -0.2574 H   0  0
    4.4202   -6.5628    0.2775 H   0  0
    4.3331   -7.1776   -1.9962 H   0  0
    5.0693   -5.4969   -3.6580 H   0  0
    3.4214   -5.0223   -3.2729 H   0  0
    5.5335   -2.8391   -4.1709 H   0  0
    3.8501   -2.6461   -3.7899 H   0  0
    6.2241   -1.2109   -2.6431 H   0  0
    4.5842   -0.6316   -2.8484 H   0  0
    3.2965   -3.3057   -1.4221 H   0  0
   10.6458   -2.4424    0.4214 H   0  0
   10.2437   -3.3394    1.8884 H   0  0
   10.2017   -1.5681    1.8906 H   0  0
    1.1122    0.6206   -1.7757 H   0  0
  1  2  1  0
  1 58  1  0
  1 59  1  0
  1 60  1  0
  2  3  1  0
  2 61  1  0
  2 62  1  0
  3  4  2  0
  3  8  1  0
  4  5  1  0
  4 63  1  0
  5  6  1  0
  5 64  1  0
  5 20  1  0
  6  7  1  0
  6 65  1  0
  6 66  1  0
  7  8  1  0
  7  9  1  0
  7112  1  0
  8 67  1  0
  8 68  1  0
  9 10  1  0
  9 69  1  0
  9 70  1  0
 10 11  2  0
 10 18  1  0
 11 12  1  0
 11 19  1  0
 12 13  1  0
 12 71  1  0
 13 14  2  0
 13 18  1  0
 14 15  1  0
 14 72  1  0
 15 16  2  0
 15 73  1  0
 16 17  1  0
 16 74  1  0
 17 18  2  0
 17 75  1  0
 19 20  1  0
 19 21  1  0
 19 25  1  0
 20 76  1  0
 20 77  1  0
 21 22  2  0
 21 23  1  0
 23 24  1  0
 24 78  1  0
 24 79  1  0
 24 80  1  0
 25 26  2  0
 25 30  1  0
 26 27  1  0
 26 81  1  0
 27 28  2  0
 27 52  1  0
 28 29  1  0
 28 33  1  0
 29 30  2  0
 29 82  1  0
 30 31  1  0
 31 32  1  0
 32 83  1  0
 32 84  1  0
 32 85  1  0
 33 34  1  0
 33 35  1  0
 34 86  1  0
 34 87  1  0
 34 88  1  0
 35 36  1  0
 35 89  1  0
 35 52  1  0
 36 37  1  0
 36 38  1  0
 36 54  1  0
 37 90  1  0
 38 39  1  0
 38 43  1  0
 38 91  1  0
 39 40  1  0
 40 41  2  0
 40 42  1  0
 42 92  1  0
 42 93  1  0
 42 94  1  0
 43 44  1  0
 43 46  1  0
 43 53  1  0
 44 45  1  0
 44 95  1  0
 44 96  1  0
 45 97  1  0
 45 98  1  0
 45 99  1  0
 46 47  2  0
 46100  1  0
 47 48  1  0
 47101  1  0
 48 49  1  0
 48102  1  0
 48103  1  0
 49 50  1  0
 49 53  1  0
 50 51  1  0
 50104  1  0
 50105  1  0
 51 52  1  0
 51106  1  0
 51107  1  0
 52 53  1  0
 53108  1  0
 54 55  2  0
 54 56  1  0
 56 57  1  0
 57109  1  0
 57110  1  0
 57111  1  0
M  CHG  1   7   1
M  END
> <Mol2_MolInfo_Name>
14460

> <Mol2_MolInfo_Type>
SMALL

> <Mol2_MolInfo_Charge>
USER_CHARGES

> <Mol2_Substructures>
     1 ****        1 GROUP             0       ****    0 ROOT    

> <Name>
14460

$$$$
14460
  SciTegic06232017503D

112120  0  0  0  0            999 V2000
   -3.9412    4.7977   -2.6278 C   0  0
   -2.4357    5.1002   -2.6331 C   0  0
   -1.5560    3.8597   -2.5612 C   0  0
   -0.8263    3.5758   -1.4582 C   0  0
    0.0687    2.3479   -1.2857 C   0  0  2  0  0  0
    0.3685    1.7233   -2.6772 C   0  0
   -0.9187    1.5813   -3.5188 N   0  3  2  0  0  0
   -1.4863    2.9905   -3.8235 C   0  0
   -1.9902    0.6547   -2.8903 C   0  0
   -1.3856   -0.6583   -2.3984 C   0  0
   -0.6275   -0.9373   -1.2400 C   0  0
   -0.3695   -2.2960   -1.2557 N   0  0
   -0.9022   -2.9184   -2.3554 C   0  0
   -0.8828   -4.2595   -2.7556 C   0  0
   -1.5226   -4.5713   -3.9547 C   0  0
   -2.1555   -3.5969   -4.7203 C   0  0
   -2.1767   -2.2646   -4.3119 C   0  0
   -1.5446   -1.9022   -3.1085 C   0  0
   -0.0820   -0.0643   -0.0607 C   0  0  1  0  0  0
   -0.5713    1.4251   -0.2006 C   0  0
   -0.6895   -0.6773    1.2515 C   0  0
   -1.6571   -0.1694    1.8267 O   0  0
   -0.0470   -1.7981    1.6740 O   0  0
   -0.4572   -2.4666    2.8573 C   0  0
    1.4877   -0.0589    0.0785 C   0  0
    2.2916   -0.6369   -0.9229 C   0  0
    3.6840   -0.6278   -0.8531 C   0  0
    4.3048   -0.0070    0.2255 C   0  0
    3.5470    0.6126    1.2119 C   0  0
    2.1421    0.5788    1.1666 C   0  0
    1.3658    1.1760    2.1456 O   0  0
    1.9763    1.8045    3.2677 C   0  0
    5.6727    0.0127   -0.0442 N   0  0
    6.7099    0.3229    0.9336 C   0  0
    5.9714   -1.1277   -0.9238 C   0  0  1  0  0  0
    6.3983   -2.5068   -0.2591 C   0  0  1  0  0  0
    5.6321   -2.7354    0.9196 O   0  0
    6.1853   -3.7129   -1.2430 C   0  0  2  0  0  0
    7.1156   -3.6343   -2.3434 O   0  0
    7.9878   -4.6274   -2.6411 C   0  0
    8.1086   -5.6990   -2.0467 O   0  0
    8.8568   -4.2836   -3.8427 C   0  0
    4.7243   -3.8737   -1.8031 C   0  0  2  0  0  0
    3.7198   -4.2915   -0.6753 C   0  0
    2.3281   -4.7852   -1.1215 C   0  0
    4.7033   -5.0331   -2.8235 C   0  0
    4.4679   -4.8775   -4.1384 C   0  0
    4.2145   -3.5151   -4.7507 C   0  0
    4.7243   -2.4287   -3.9175 N   0  0  1  0  0  0
    4.3922   -1.0689   -4.2807 C   0  0
    4.8571   -0.2482   -3.0856 C   0  0
    4.7093   -1.1706   -1.8394 C   0  0  2  0  0  0
    4.3124   -2.5273   -2.5149 C   0  0  2  0  0  0
    7.8950   -2.5017    0.2127 C   0  0
    8.2473   -2.9464    1.3114 O   0  0
    8.7450   -1.9654   -0.6977 O   0  0
   10.1395   -1.8987   -0.4409 C   0  0
   -4.5213    5.7205   -2.6567 H   0  0
   -4.2316    4.2538   -1.7281 H   0  0
   -4.2359    4.1995   -3.4902 H   0  0
   -2.1749    5.6577   -3.5337 H   0  0
   -2.2090    5.7656   -1.7983 H   0  0
   -0.9113    4.2473   -0.6154 H   0  0
    1.0285    2.6895   -0.8950 H   0  0
    1.0138    2.3780   -3.2659 H   0  0
    0.8594    0.7560   -2.6607 H   0  0
   -2.4463    2.8542   -4.3228 H   0  0
   -0.7784    3.4327   -4.5259 H   0  0
   -2.5266    1.2282   -2.1395 H   0  0
   -2.6919    0.5034   -3.7112 H   0  0
    0.1596   -2.7372   -0.5171 H   0  0
   -0.3985   -5.0269   -2.1700 H   0  0
   -1.5284   -5.5956   -4.2980 H   0  0
   -2.6406   -3.8790   -5.6435 H   0  0
   -2.6774   -1.5261   -4.9197 H   0  0
   -0.4317    1.9512    0.7447 H   0  0
   -1.6560    1.4251   -0.2850 H   0  0
    0.1705   -3.3418    3.0242 H   0  0
   -1.4929   -2.8004    2.7804 H   0  0
   -0.3671   -1.8125    3.7258 H   0  0
    1.8420   -1.0921   -1.7893 H   0  0
    4.0638    1.1291    2.0056 H   0  0
    1.1991    2.1857    3.9301 H   0  0
    2.5949    2.6505    2.9651 H   0  0
    2.5817    1.1007    3.8411 H   0  0
    6.4937    1.2791    1.4103 H   0  0
    7.6870    0.4097    0.4576 H   0  0
    6.7613   -0.4295    1.7203 H   0  0
    6.8077   -0.8199   -1.5508 H   0  0
    5.9159   -3.5653    1.3106 H   0  0
    6.4143   -4.6236   -0.6846 H   0  0
    8.2328   -4.0677   -4.7103 H   0  0
    9.5183   -5.1137   -4.0907 H   0  0
    9.4684   -3.4074   -3.6266 H   0  0
    4.1667   -5.0614   -0.0443 H   0  0
    3.5236   -3.4420   -0.0245 H   0  0
    1.6729   -4.9212   -0.2606 H   0  0
    2.3806   -5.7430   -1.6394 H   0  0
    1.8463   -4.0722   -1.7875 H   0  0
    4.8896   -6.0372   -2.4695 H   0  0
    4.4561   -5.7543   -4.7688 H   0  0
    4.7227   -3.4840   -5.7149 H   0  0
    3.1436   -3.4288   -4.9407 H   0  0
    4.9129   -0.8148   -5.2048 H   0  0
    3.3295   -0.9556   -4.5038 H   0  0
    5.8882    0.0538   -3.2745 H   0  0
    4.2617    0.6635   -3.0155 H   0  0
    3.2247   -2.5644   -2.5807 H   0  0
   10.6508   -1.4496   -1.2924 H   0  0
   10.5549   -2.8948   -0.2813 H   0  0
   10.3461   -1.2904    0.4406 H   0  0
   -0.6443    1.1660   -4.3979 H   0  0
  1  2  1  0
  1 58  1  0
  1 59  1  0
  1 60  1  0
  2  3  1  0
  2 61  1  0
  2 62  1  0
  3  4  2  0
  3  8  1  0
  4  5  1  0
  4 63  1  0
  5  6  1  0
  5 64  1  0
  5 20  1  0
  6  7  1  0
  6 65  1  0
  6 66  1  0
  7  8  1  0
  7  9  1  0
  7112  1  0
  8 67  1  0
  8 68  1  0
  9 10  1  0
  9 69  1  0
  9 70  1  0
 10 11  2  0
 10 18  1  0
 11 12  1  0
 11 19  1  0
 12 13  1  0
 12 71  1  0
 13 14  2  0
 13 18  1  0
 14 15  1  0
 14 72  1  0
 15 16  2  0
 15 73  1  0
 16 17  1  0
 16 74  1  0
 17 18  2  0
 17 75  1  0
 19 20  1  0
 19 21  1  0
 19 25  1  0
 20 76  1  0
 20 77  1  0
 21 22  2  0
 21 23  1  0
 23 24  1  0
 24 78  1  0
 24 79  1  0
 24 80  1  0
 25 26  2  0
 25 30  1  0
 26 27  1  0
 26 81  1  0
 27 28  2  0
 27 52  1  0
 28 29  1  0
 28 33  1  0
 29 30  2  0
 29 82  1  0
 30 31  1  0
 31 32  1  0
 32 83  1  0
 32 84  1  0
 32 85  1  0
 33 34  1  0
 33 35  1  0
 34 86  1  0
 34 87  1  0
 34 88  1  0
 35 36  1  0
 35 89  1  0
 35 52  1  0
 36 37  1  0
 36 38  1  0
 36 54  1  0
 37 90  1  0
 38 39  1  0
 38 43  1  0
 38 91  1  0
 39 40  1  0
 40 41  2  0
 40 42  1  0
 42 92  1  0
 42 93  1  0
 42 94  1  0
 43 44  1  0
 43 46  1  0
 43 53  1  0
 44 45  1  0
 44 95  1  0
 44 96  1  0
 45 97  1  0
 45 98  1  0
 45 99  1  0
 46 47  2  0
 46100  1  0
 47 48  1  0
 47101  1  0
 48 49  1  0
 48102  1  0
 48103  1  0
 49 50  1  0
 49 53  1  0
 50 51  1  0
 50104  1  0
 50105  1  0
 51 52  1  0
 51106  1  0
 51107  1  0
 52 53  1  0
 53108  1  0
 54 55  2  0
 54 56  1  0
 56 57  1  0
 57109  1  0
 57110  1  0
 57111  1  0
M  CHG  1   7   1
M  END
> <Mol2_MolInfo_Name>
14460

> <Mol2_MolInfo_Type>
SMALL

> <Mol2_MolInfo_Charge>
USER_CHARGES

> <Mol2_Substructures>
     1 ****        1 GROUP             0       ****    0 ROOT    

> <Name>
14460

$$$$
14460
  SciTegic06232017503D

112120  0  0  0  0            999 V2000
   -1.9926    6.1787    3.3419 C   0  0
   -2.3712    5.1160    2.3001 C   0  0
   -1.4497    3.9038    2.2850 C   0  0
   -0.6951    3.6035    1.2028 C   0  0
    0.2173    2.3829    1.0749 C   0  0  1  0  0  0
    0.4819    1.7826    2.4849 C   0  0
   -0.8266    1.6420    3.2940 N   0  3  1  0  0  0
   -1.4159    3.0502    3.5592 C   0  0
   -1.8737    0.6930    2.6578 C   0  0
   -1.2454   -0.6215    2.2040 C   0  0
   -0.4670   -0.9107    1.0638 C   0  0
   -0.1998   -2.2674    1.0969 N   0  0
   -0.7061   -2.8709    2.2183 C   0  0
   -0.6373   -4.1968    2.6592 C   0  0
   -1.2655   -4.4937    3.8685 C   0  0
   -1.9338   -3.5191    4.6036 C   0  0
   -1.9999   -2.2006    4.1562 C   0  0
   -1.3770   -1.8521    2.9440 C   0  0
    0.1130   -0.0530   -0.1070 C   0  0  2  0  0  0
   -0.3841    1.4376   -0.0135 C   0  0
   -0.4418   -0.7049   -1.4239 C   0  0
    0.2285   -1.4970   -2.0948 O   0  0
   -1.7147   -0.3399   -1.7176 O   0  0
   -2.3648   -0.8404   -2.8764 C   0  0
    1.6878   -0.0473   -0.1721 C   0  0
    2.4365   -0.6260    0.8686 C   0  0
    3.8256   -0.6173    0.8731 C   0  0
    4.5151   -0.0085   -0.1727 C   0  0
    3.8099    0.5511   -1.2342 C   0  0
    2.4016    0.5637   -1.2380 C   0  0
    1.6766    1.1553   -2.2587 O   0  0
    2.3461    1.7604   -3.3598 C   0  0
    5.8844   -0.2099    0.0436 N   0  0
    6.8890    0.7314   -0.4443 C   0  0
    6.0139   -0.4142    1.4903 C   0  0  2  0  0  0
    7.3289   -0.8606    2.2440 C   0  0  1  0  0  0
    8.1103    0.3172    2.4195 O   0  0
    7.0064   -1.4267    3.6973 C   0  0  2  0  0  0
    7.0516   -2.8663    3.7700 O   0  0
    7.9193   -3.5465    4.5581 C   0  0
    8.7660   -3.0609    5.3086 O   0  0
    7.7473   -5.0535    4.4257 C   0  0
    5.6659   -0.8856    4.3538 C   0  0  2  0  0  0
    5.9022    0.6106    4.7573 C   0  0
    4.7579    1.3238    5.5099 C   0  0
    5.4124   -1.6106    5.6925 C   0  0
    4.2905   -2.2841    5.9987 C   0  0
    3.1451   -2.4275    5.0211 C   0  0
    3.5678   -2.2558    3.6365 N   0  0  2  0  0  0
    4.0666   -3.3804    2.8687 C   0  0
    4.7997   -2.7874    1.6627 C   0  0
    4.7816   -1.2453    1.8695 C   0  0  2  0  0  0
    4.4174   -1.0922    3.3685 C   0  0  2  0  0  0
    8.2495   -1.8222    1.4233 C   0  0
    7.8713   -2.3745    0.3868 O   0  0
    9.4723   -2.0019    1.9874 O   0  0
   10.4244   -2.8710    1.3931 C   0  0
   -2.6735    7.0289    3.2932 H   0  0
   -0.9827    6.5544    3.1741 H   0  0
   -2.0383    5.7802    4.3559 H   0  0
   -3.3885    4.7690    2.4859 H   0  0
   -2.3928    5.5830    1.3139 H   0  0
   -0.7713    4.2542    0.3431 H   0  0
    1.1844    2.7281    0.7062 H   0  0
    0.9806    0.8195    2.4996 H   0  0
    1.1050    2.4518    3.0814 H   0  0
   -0.7366    3.5056    4.2811 H   0  0
   -2.3946    2.9163    4.0225 H   0  0
   -2.5942    0.5480    3.4633 H   0  0
   -2.3946    1.2474    1.8819 H   0  0
    0.3412   -2.7137    0.3700 H   0  0
   -0.1220   -4.9617    2.0970 H   0  0
   -1.2334   -5.5060    4.2443 H   0  0
   -2.4087   -3.7896    5.5354 H   0  0
   -2.5236   -1.4610    4.7433 H   0  0
   -1.4700    1.4406    0.0489 H   0  0
   -0.2209    1.9393   -0.9682 H   0  0
   -3.3726   -0.4302   -2.9396 H   0  0
   -2.4419   -1.9282   -2.8442 H   0  0
   -1.8246   -0.5572   -3.7810 H   0  0
    1.9543   -1.0957    1.7092 H   0  0
    4.3687    0.9844   -2.0490 H   0  0
    1.6062    2.1616   -4.0522 H   0  0
    2.9504    1.0358   -3.9077 H   0  0
    2.9789    2.5886   -3.0376 H   0  0
    6.7537    0.9023   -1.5125 H   0  0
    7.9008    0.3520   -0.3066 H   0  0
    6.8085    1.6947    0.0614 H   0  0
    5.8080    0.5847    1.8862 H   0  0
    7.6084    0.9417    2.9481 H   0  0
    7.8182   -1.0835    4.3426 H   0  0
    6.7340   -5.3441    4.7030 H   0  0
    8.4472   -5.5805    5.0746 H   0  0
    7.9302   -5.3641    3.3970 H   0  0
    6.7987    0.6825    5.3763 H   0  0
    6.1213    1.2145    3.8805 H   0  0
    5.0441    2.3475    5.7527 H   0  0
    4.5151    0.8291    6.4505 H   0  0
    3.8464    1.3819    4.9167 H   0  0
    6.1780   -1.5633    6.4541 H   0  0
    4.2072   -2.7273    6.9802 H   0  0
    2.7030   -3.4174    5.1396 H   0  0
    2.3765   -1.7031    5.2922 H   0  0
    4.7323   -3.9945    3.4764 H   0  0
    3.2428   -4.0367    2.5856 H   0  0
    5.8061   -3.1929    1.6595 H   0  0
    4.3191   -3.0918    0.7311 H   0  0
    3.7683   -0.2265    3.4914 H   0  0
   11.3381   -2.8796    1.9873 H   0  0
   10.6780   -2.5438    0.3838 H   0  0
   10.0428   -3.8918    1.3417 H   0  0
   -0.5699    1.2456    4.1871 H   0  0
  1  2  1  0
  1 58  1  0
  1 59  1  0
  1 60  1  0
  2  3  1  0
  2 61  1  0
  2 62  1  0
  3  4  2  0
  3  8  1  0
  4  5  1  0
  4 63  1  0
  5  6  1  0
  5 64  1  0
  5 20  1  0
  6  7  1  0
  6 65  1  0
  6 66  1  0
  7  8  1  0
  7  9  1  0
  7112  1  0
  8 67  1  0
  8 68  1  0
  9 10  1  0
  9 69  1  0
  9 70  1  0
 10 11  2  0
 10 18  1  0
 11 12  1  0
 11 19  1  0
 12 13  1  0
 12 71  1  0
 13 14  2  0
 13 18  1  0
 14 15  1  0
 14 72  1  0
 15 16  2  0
 15 73  1  0
 16 17  1  0
 16 74  1  0
 17 18  2  0
 17 75  1  0
 19 20  1  0
 19 21  1  0
 19 25  1  0
 20 76  1  0
 20 77  1  0
 21 22  2  0
 21 23  1  0
 23 24  1  0
 24 78  1  0
 24 79  1  0
 24 80  1  0
 25 26  2  0
 25 30  1  0
 26 27  1  0
 26 81  1  0
 27 28  2  0
 27 52  1  0
 28 29  1  0
 28 33  1  0
 29 30  2  0
 29 82  1  0
 30 31  1  0
 31 32  1  0
 32 83  1  0
 32 84  1  0
 32 85  1  0
 33 34  1  0
 33 35  1  0
 34 86  1  0
 34 87  1  0
 34 88  1  0
 35 36  1  0
 35 89  1  0
 35 52  1  0
 36 37  1  0
 36 38  1  0
 36 54  1  0
 37 90  1  0
 38 39  1  0
 38 43  1  0
 38 91  1  0
 39 40  1  0
 40 41  2  0
 40 42  1  0
 42 92  1  0
 42 93  1  0
 42 94  1  0
 43 44  1  0
 43 46  1  0
 43 53  1  0
 44 45  1  0
 44 95  1  0
 44 96  1  0
 45 97  1  0
 45 98  1  0
 45 99  1  0
 46 47  2  0
 46100  1  0
 47 48  1  0
 47101  1  0
 48 49  1  0
 48102  1  0
 48103  1  0
 49 50  1  0
 49 53  1  0
 50 51  1  0
 50104  1  0
 50105  1  0
 51 52  1  0
 51106  1  0
 51107  1  0
 52 53  1  0
 53108  1  0
 54 55  2  0
 54 56  1  0
 56 57  1  0
 57109  1  0
 57110  1  0
 57111  1  0
M  CHG  1   7   1
M  END
> <Mol2_MolInfo_Name>
14460

> <Mol2_MolInfo_Type>
SMALL

> <Mol2_MolInfo_Charge>
USER_CHARGES

> <Mol2_Substructures>
     1 ****        1 GROUP             0       ****    0 ROOT    

> <Name>
14460

$$$$
14460
  SciTegic06232017503D

112120  0  0  0  0            999 V2000
    4.1419    4.2811    2.7869 C   0  0
    3.6664    3.3929    1.6291 C   0  0
    2.3111    2.7443    1.8678 C   0  0
    1.2314    3.0383    1.0933 C   0  0
   -0.1633    2.4021    1.2628 C   0  0  2  0  0  0
   -0.2745    1.7526    2.6468 C   0  0
    0.9750    0.8641    2.7052 N   0  3  1  0  0  0
    2.2378    1.6912    2.9883 C   0  0
    0.7533   -0.5026    3.3372 C   0  0
   -0.2294   -1.2136    2.4091 C   0  0
   -0.4997   -1.0083    1.0247 C   0  0
   -1.5555   -1.8552    0.7310 N   0  0
   -1.9287   -2.6411    1.7911 C   0  0
   -2.9089   -3.6335    1.9019 C   0  0
   -3.0424   -4.2538    3.1441 C   0  0
   -2.2407   -3.9028    4.2268 C   0  0
   -1.2685   -2.9110    4.1085 C   0  0
   -1.0975   -2.2614    2.8732 C   0  0
    0.0863   -0.0377   -0.0910 C   0  0  2  0  0  0
   -0.5628    1.4195    0.1030 C   0  0
   -0.2703   -0.6258   -1.5115 C   0  0
    0.0811   -1.7680   -1.8281 O   0  0
   -0.9887    0.1954   -2.3167 O   0  0
   -1.3620   -0.2119   -3.6251 C   0  0
    1.6589   -0.0069   -0.1683 C   0  0
    2.4174   -0.9691    0.5257 C   0  0
    3.8100   -0.9677    0.5021 C   0  0
    4.4846   -0.0079   -0.2546 C   0  0
    3.7655    0.8944   -1.0291 C   0  0
    2.3596    0.9098   -0.9988 C   0  0
    1.6256    1.7864   -1.7777 O   0  0
    2.2805    2.7485   -2.5978 C   0  0
    5.8605   -0.2581   -0.1528 N   0  0
    6.8421    0.8185   -0.2582 C   0  0
    5.9976   -0.9777    1.1148 C   0  0  2  0  0  0
    7.3359   -1.5801    1.7014 C   0  0  1  0  0  0
    8.0157   -0.5060    2.3477 O   0  0
    7.0471   -2.6477    2.8441 C   0  0  2  0  0  0
    7.1514   -4.0053    2.3706 O   0  0
    8.0553   -4.8908    2.8513 C   0  0
    8.8907   -4.6831    3.7314 O   0  0
    7.9401   -6.2482    2.1709 C   0  0
    5.6725   -2.4515    3.6112 C   0  0  2  0  0  0
    5.7348   -1.1380    4.4662 C   0  0
    4.4912   -0.8030    5.3158 C   0  0
    5.4840   -3.5696    4.6684 C   0  0
    4.5300   -4.5206    4.6143 C   0  0
    3.5678   -4.6368    3.4479 C   0  0
    4.0779   -3.8980    2.3058 N   0  0  1  0  0  0
    3.7739   -4.1319    0.9156 C   0  0
    4.8092   -3.2278    0.2575 C   0  0
    4.7981   -1.9409    1.1255 C   0  0  2  0  0  0
    4.4856   -2.5112    2.5447 C   0  0  2  0  0  0
    8.3504   -2.1053    0.6303 C   0  0
    9.5732   -2.0384    0.7985 O   0  0
    7.7644   -2.6184   -0.4722 O   0  0
    8.5441   -3.1428   -1.5365 C   0  0
    5.1078    4.7318    2.5582 H   0  0
    4.2561    3.7099    3.7088 H   0  0
    3.4366    5.0906    2.9789 H   0  0
    3.6420    3.9837    0.7119 H   0  0
    4.3975    2.6027    1.4528 H   0  0
    1.3575    3.7639    0.3025 H   0  0
   -0.8767    3.2275    1.2442 H   0  0
   -0.2023    2.4708    3.4662 H   0  0
   -1.1842    1.1656    2.7793 H   0  0
    3.0773    0.9956    2.9533 H   0  0
    2.1368    2.1179    3.9873 H   0  0
    1.7274   -0.9819    3.3914 H   0  0
    0.3849   -0.2960    4.3432 H   0  0
   -1.9567   -1.8848   -0.1952 H   0  0
   -3.5374   -3.9136    1.0692 H   0  0
   -3.7879   -5.0254    3.2704 H   0  0
   -2.3764   -4.4059    5.1731 H   0  0
   -0.6578   -2.6493    4.9602 H   0  0
   -1.6387    1.2627    0.2028 H   0  0
   -0.4960    2.0164   -0.8049 H   0  0
   -1.9266    0.5827   -4.1126 H   0  0
   -1.9880   -1.1049   -3.5944 H   0  0
   -0.4821   -0.4256   -4.2336 H   0  0
    1.9320   -1.7510    1.0853 H   0  0
    4.3131    1.5818   -1.6546 H   0  0
    1.5304    3.3540   -3.1063 H   0  0
    2.8933    2.2720   -3.3643 H   0  0
    2.9008    3.4230   -2.0053 H   0  0
    6.6873    1.3764   -1.1820 H   0  0
    7.8616    0.4363   -0.2845 H   0  0
    6.7542    1.5194    0.5734 H   0  0
    5.7370   -0.2008    1.8380 H   0  0
    8.1896    0.1788    1.6977 H   0  0
    7.8335   -2.5304    3.5934 H   0  0
    6.9546   -6.6771    2.3517 H   0  0
    8.6922   -6.9377    2.5546 H   0  0
    8.0832   -6.1456    1.0952 H   0  0
    6.5953   -1.1879    5.1365 H   0  0
    5.9265   -0.2642    3.8528 H   0  0
    4.6573    0.1075    5.8919 H   0  0
    4.2525   -1.5933    6.0274 H   0  0
    3.6126   -0.6318    4.6978 H   0  0
    6.1479   -3.5912    5.5212 H   0  0
    4.4713   -5.2369    5.4204 H   0  0
    3.4612   -5.6902    3.1870 H   0  0
    2.5858   -4.2860    3.7668 H   0  0
    3.9143   -5.1884    0.6846 H   0  0
    2.7343   -3.8916    0.6917 H   0  0
    5.7566   -3.7600    0.2826 H   0  0
    4.6118   -3.0474   -0.8004 H   0  0
    3.6215   -1.9965    2.9577 H   0  0
    7.8896   -3.5045   -2.3295 H   0  0
    9.1590   -3.9773   -1.1960 H   0  0
    9.1975   -2.3775   -1.9581 H   0  0
    1.1016    0.5947    1.7391 H   0  0
  1  2  1  0
  1 58  1  0
  1 59  1  0
  1 60  1  0
  2  3  1  0
  2 61  1  0
  2 62  1  0
  3  4  2  0
  3  8  1  0
  4  5  1  0
  4 63  1  0
  5  6  1  0
  5 64  1  0
  5 20  1  0
  6  7  1  0
  6 65  1  0
  6 66  1  0
  7  8  1  0
  7  9  1  0
  7112  1  0
  8 67  1  0
  8 68  1  0
  9 10  1  0
  9 69  1  0
  9 70  1  0
 10 11  2  0
 10 18  1  0
 11 12  1  0
 11 19  1  0
 12 13  1  0
 12 71  1  0
 13 14  2  0
 13 18  1  0
 14 15  1  0
 14 72  1  0
 15 16  2  0
 15 73  1  0
 16 17  1  0
 16 74  1  0
 17 18  2  0
 17 75  1  0
 19 20  1  0
 19 21  1  0
 19 25  1  0
 20 76  1  0
 20 77  1  0
 21 22  2  0
 21 23  1  0
 23 24  1  0
 24 78  1  0
 24 79  1  0
 24 80  1  0
 25 26  2  0
 25 30  1  0
 26 27  1  0
 26 81  1  0
 27 28  2  0
 27 52  1  0
 28 29  1  0
 28 33  1  0
 29 30  2  0
 29 82  1  0
 30 31  1  0
 31 32  1  0
 32 83  1  0
 32 84  1  0
 32 85  1  0
 33 34  1  0
 33 35  1  0
 34 86  1  0
 34 87  1  0
 34 88  1  0
 35 36  1  0
 35 89  1  0
 35 52  1  0
 36 37  1  0
 36 38  1  0
 36 54  1  0
 37 90  1  0
 38 39  1  0
 38 43  1  0
 38 91  1  0
 39 40  1  0
 40 41  2  0
 40 42  1  0
 42 92  1  0
 42 93  1  0
 42 94  1  0
 43 44  1  0
 43 46  1  0
 43 53  1  0
 44 45  1  0
 44 95  1  0
 44 96  1  0
 45 97  1  0
 45 98  1  0
 45 99  1  0
 46 47  2  0
 46100  1  0
 47 48  1  0
 47101  1  0
 48 49  1  0
 48102  1  0
 48103  1  0
 49 50  1  0
 49 53  1  0
 50 51  1  0
 50104  1  0
 50105  1  0
 51 52  1  0
 51106  1  0
 51107  1  0
 52 53  1  0
 53108  1  0
 54 55  2  0
 54 56  1  0
 56 57  1  0
 57109  1  0
 57110  1  0
 57111  1  0
M  CHG  1   7   1
M  END
> <Mol2_MolInfo_Name>
14460

> <Mol2_MolInfo_Type>
SMALL

> <Mol2_MolInfo_Charge>
USER_CHARGES

> <Mol2_Substructures>
     1 ****        1 GROUP             0       ****    0 ROOT    

> <Name>
14460

$$$$
14460
  SciTegic06232017503D

112120  0  0  0  0            999 V2000
   -3.4979    0.8474   -4.5053 C   0  0
   -4.1622    1.5117   -3.2905 C   0  0
   -3.6001    1.0620   -1.9493 C   0  0
   -2.8731    1.9045   -1.1658 C   0  0
   -2.2986    1.5371    0.2188 C   0  0  1  0  0  0
   -3.0203    0.2958    0.7640 C   0  0
   -2.9007   -0.7061   -0.3953 N   0  3  2  0  0  0
   -3.9003   -0.3857   -1.5165 C   0  0
   -2.5655   -2.1440   -0.0085 C   0  0
   -1.2467   -2.0551    0.7559 C   0  0
   -0.2050   -1.0918    0.6668 C   0  0
    0.6572   -1.3736    1.7095 N   0  0
    0.3304   -2.5298    2.3702 C   0  0
    0.9703   -3.2045    3.4156 C   0  0
    0.3649   -4.3734    3.8765 C   0  0
   -0.8256   -4.8451    3.3305 C   0  0
   -1.4598   -4.1639    2.2927 C   0  0
   -0.8776   -2.9889    1.7860 C   0  0
    0.1010    0.1537   -0.2591 C   0  0  2  0  0  0
   -0.7261    1.4264    0.2435 C   0  0
   -0.2230   -0.0780   -1.7768 C   0  0
   -0.2892    0.8673   -2.5682 O   0  0
   -0.3759   -1.3791   -2.1251 O   0  0
   -0.6321   -1.7478   -3.4714 C   0  0
    1.6746    0.3543   -0.2815 C   0  0
    2.4435   -0.7551   -0.6978 C   0  0
    3.8313   -0.7533   -0.6841 C   0  0
    4.5089    0.3858   -0.2627 C   0  0
    3.7928    1.5210    0.1011 C   0  0
    2.3828    1.5189    0.1336 C   0  0
    1.6889    2.6284    0.5793 O   0  0
    2.3729    3.8069    0.9955 C   0  0
    5.8816    0.1457   -0.4068 N   0  0
    6.8705    0.8047    0.4426 C   0  0
    6.0122   -1.3134   -0.3281 C   0  0  2  0  0  0
    7.3352   -2.1373   -0.5840 C   0  0  1  0  0  0
    8.0820   -2.0848    0.6278 O   0  0
    7.0209   -3.6715   -0.8684 C   0  0  2  0  0  0
    7.1021   -4.0153   -2.2666 O   0  0
    7.9751   -4.9270   -2.7597 C   0  0
    8.7977   -5.5789   -2.1161 O   0  0
    7.8428   -5.0854   -4.2682 C   0  0
    5.6640   -4.2131   -0.2468 C   0  0  2  0  0  0
    5.8496   -4.3172    1.3066 C   0  0
    4.6780   -4.9202    2.1139 C   0  0
    5.4296   -5.6681   -0.7044 C   0  0
    4.3309   -6.1020   -1.3446 C   0  0
    3.1960   -5.1735   -1.7156 C   0  0
    3.6164   -3.7799   -1.7976 N   0  0  2  0  0  0
    4.1488   -3.2336   -3.0306 C   0  0
    4.8539   -1.9283   -2.6540 C   0  0
    4.7982   -1.8454   -1.1014 C   0  0  2  0  0  0
    4.4263   -3.2906   -0.6791 C   0  0  2  0  0  0
    8.2882   -1.5176   -1.6576 C   0  0
    7.9341   -0.6045   -2.4082 O   0  0
    9.5112   -2.1085   -1.6895 O   0  0
   10.4938   -1.6928   -2.6255 C   0  0
   -3.9163    1.2348   -5.4347 H   0  0
   -3.6465   -0.2325   -4.5072 H   0  0
   -2.4243    1.0390   -4.5230 H   0  0
   -4.0639    2.5943   -3.3878 H   0  0
   -5.2339    1.3096   -3.3000 H   0  0
   -2.6880    2.9036   -1.5341 H   0  0
   -2.5661    2.3668    0.8752 H   0  0
   -2.5849   -0.0928    1.6847 H   0  0
   -4.0853    0.4647    0.9351 H   0  0
   -4.9040   -0.5239   -1.1122 H   0  0
   -3.7103   -1.1100   -2.3088 H   0  0
   -3.4214   -2.4823    0.5772 H   0  0
   -2.5013   -2.7068   -0.9401 H   0  0
    1.4710   -0.8008    1.8816 H   0  0
    1.8922   -2.8464    3.8501 H   0  0
    0.8294   -4.9262    4.6803 H   0  0
   -1.2647   -5.7528    3.7185 H   0  0
   -2.3842   -4.5437    1.8833 H   0  0
   -0.3962    2.3040   -0.3126 H   0  0
   -0.4321    1.6026    1.2795 H   0  0
   -0.7156   -2.8319   -3.5471 H   0  0
    0.1773   -1.4228   -4.1267 H   0  0
   -1.5650   -1.3097   -3.8269 H   0  0
    1.9444   -1.6594   -1.0133 H   0  0
    4.3527    2.3968    0.3883 H   0  0
    1.6418    4.5542    1.3037 H   0  0
    2.9599    4.2377    0.1830 H   0  0
    3.0236    3.6128    1.8494 H   0  0
    6.7323    1.8855    0.4071 H   0  0
    7.8885    0.6024    0.1120 H   0  0
    6.7746    0.4892    1.4824 H   0  0
    5.7810   -1.5117    0.7228 H   0  0
    7.5649   -2.4964    1.3239 H   0  0
    7.8207   -4.2389   -0.3873 H   0  0
    6.8270   -5.3824   -4.5293 H   0  0
    8.5299   -5.8467   -4.6380 H   0  0
    8.0704   -4.1435   -4.7676 H   0  0
    6.7409   -4.9082    1.5271 H   0  0
    6.0524   -3.3395    1.7362 H   0  0
    4.9297   -4.9619    3.1740 H   0  0
    4.4465   -5.9386    1.8016 H   0  0
    3.7666   -4.3296    2.0284 H   0  0
    6.1890   -6.4043   -0.4825 H   0  0
    4.2581   -7.1513   -1.5900 H   0  0
    2.7916   -5.4829   -2.6801 H   0  0
    2.4001   -5.3038   -0.9818 H   0  0
    4.8363   -3.9391   -3.4987 H   0  0
    3.3454   -3.0885   -3.7536 H   0  0
    5.8708   -1.9846   -3.0293 H   0  0
    4.3688   -1.0777   -3.1362 H   0  0
    3.7472   -3.2506    0.1712 H   0  0
   11.4011   -2.2823   -2.4943 H   0  0
   10.7478   -0.6410   -2.4864 H   0  0
   10.1424   -1.8336   -3.6487 H   0  0
   -2.0200   -0.4387   -0.8122 H   0  0
  1  2  1  0
  1 58  1  0
  1 59  1  0
  1 60  1  0
  2  3  1  0
  2 61  1  0
  2 62  1  0
  3  4  2  0
  3  8  1  0
  4  5  1  0
  4 63  1  0
  5  6  1  0
  5 64  1  0
  5 20  1  0
  6  7  1  0
  6 65  1  0
  6 66  1  0
  7  8  1  0
  7  9  1  0
  7112  1  0
  8 67  1  0
  8 68  1  0
  9 10  1  0
  9 69  1  0
  9 70  1  0
 10 11  2  0
 10 18  1  0
 11 12  1  0
 11 19  1  0
 12 13  1  0
 12 71  1  0
 13 14  2  0
 13 18  1  0
 14 15  1  0
 14 72  1  0
 15 16  2  0
 15 73  1  0
 16 17  1  0
 16 74  1  0
 17 18  2  0
 17 75  1  0
 19 20  1  0
 19 21  1  0
 19 25  1  0
 20 76  1  0
 20 77  1  0
 21 22  2  0
 21 23  1  0
 23 24  1  0
 24 78  1  0
 24 79  1  0
 24 80  1  0
 25 26  2  0
 25 30  1  0
 26 27  1  0
 26 81  1  0
 27 28  2  0
 27 52  1  0
 28 29  1  0
 28 33  1  0
 29 30  2  0
 29 82  1  0
 30 31  1  0
 31 32  1  0
 32 83  1  0
 32 84  1  0
 32 85  1  0
 33 34  1  0
 33 35  1  0
 34 86  1  0
 34 87  1  0
 34 88  1  0
 35 36  1  0
 35 89  1  0
 35 52  1  0
 36 37  1  0
 36 38  1  0
 36 54  1  0
 37 90  1  0
 38 39  1  0
 38 43  1  0
 38 91  1  0
 39 40  1  0
 40 41  2  0
 40 42  1  0
 42 92  1  0
 42 93  1  0
 42 94  1  0
 43 44  1  0
 43 46  1  0
 43 53  1  0
 44 45  1  0
 44 95  1  0
 44 96  1  0
 45 97  1  0
 45 98  1  0
 45 99  1  0
 46 47  2  0
 46100  1  0
 47 48  1  0
 47101  1  0
 48 49  1  0
 48102  1  0
 48103  1  0
 49 50  1  0
 49 53  1  0
 50 51  1  0
 50104  1  0
 50105  1  0
 51 52  1  0
 51106  1  0
 51107  1  0
 52 53  1  0
 53108  1  0
 54 55  2  0
 54 56  1  0
 56 57  1  0
 57109  1  0
 57110  1  0
 57111  1  0
M  CHG  1   7   1
M  END
> <Mol2_MolInfo_Name>
14460

> <Mol2_MolInfo_Type>
SMALL

> <Mol2_MolInfo_Charge>
USER_CHARGES

> <Mol2_Substructures>
     1 ****        1 GROUP             0       ****    0 ROOT    

> <Name>
14460

$$$$
14460
  SciTegic06232017503D

112120  0  0  0  0            999 V2000
   -4.2803    5.3276    2.3981 C   0  0
   -2.8764    4.7057    2.3825 C   0  0
   -2.8126    3.3343    1.7239 C   0  0
   -2.1072    3.1258    0.5889 C   0  0
   -1.9524    1.7784   -0.1192 C   0  0  2  0  0  0
   -3.0138    0.7753    0.4107 C   0  0
   -3.0927    0.8117    1.9551 N   0  3  2  0  0  0
   -3.5946    2.2060    2.4064 C   0  0
   -1.7686    0.4265    2.6614 C   0  0
   -1.2096   -0.8644    2.0828 C   0  0
   -0.5054   -1.0821    0.8821 C   0  0
   -0.2229   -2.4352    0.8332 N   0  0
   -0.6822   -3.1084    1.9349 C   0  0
   -0.5978   -4.4588    2.2901 C   0  0
   -1.1724   -4.8289    3.5057 C   0  0
   -1.8034   -3.9008    4.3291 C   0  0
   -1.8843   -2.5573    3.9669 C   0  0
   -1.3162   -2.1369    2.7508 C   0  0
    0.0080   -0.1482   -0.2659 C   0  0  2  0  0  0
   -0.4485    1.3465   -0.0528 C   0  0
   -0.5080   -0.7249   -1.6335 C   0  0
   -1.3608   -0.1526   -2.3163 O   0  0
    0.1090   -1.8796   -1.9971 O   0  0
   -0.2108   -2.5207   -3.2229 C   0  0
    1.5853   -0.1045   -0.3012 C   0  0
    2.3166   -0.5719    0.8081 C   0  0
    3.7061   -0.5611    0.8358 C   0  0
    4.4126   -0.0212   -0.2361 C   0  0
    3.7262    0.4597   -1.3467 C   0  0
    2.3186    0.4516   -1.3860 C   0  0
    1.6165    0.9827   -2.4555 O   0  0
    2.3086    1.5448   -3.5654 C   0  0
    5.7789   -0.1933    0.0195 N   0  0
    6.7843    0.7283   -0.5036 C   0  0
    5.8831   -0.3139    1.4776 C   0  0  2  0  0  0
    7.1889   -0.7102    2.2744 C   0  0  1  0  0  0
    7.9534    0.4841    2.4097 O   0  0
    6.8479   -1.2126    3.7460 C   0  0  2  0  0  0
    6.9000   -2.6470    3.8886 O   0  0
    7.7960   -3.2854    4.6801 C   0  0
    8.6730   -2.7615    5.3673 O   0  0
    7.6156   -4.7968    4.6418 C   0  0
    5.4939   -0.6529    4.3571 C   0  0  2  0  0  0
    5.7115    0.8621    4.6946 C   0  0
    4.5555    1.5945    5.4105 C   0  0
    5.2285   -1.3208    5.7230 C   0  0
    4.1063   -1.9868    6.0442 C   0  0
    2.9740   -2.1781    5.0591 C   0  0
    3.4149   -2.0679    3.6740 N   0  0  2  0  0  0
    3.9319   -3.2236    2.9673 C   0  0
    4.6795   -2.6821    1.7466 C   0  0
    4.6488   -1.1316    1.8796 C   0  0  2  0  0  0
    4.2611   -0.9120    3.3644 C   0  0  2  0  0  0
    8.1336   -1.6990    1.5159 C   0  0
    7.7715   -2.3200    0.5129 O   0  0
    9.3583   -1.8182    2.0921 O   0  0
   10.3313   -2.6991    1.5520 C   0  0
   -4.2624    6.3135    2.8634 H   0  0
   -4.9852    4.7129    2.9589 H   0  0
   -4.6707    5.4475    1.3868 H   0  0
   -2.1925    5.3937    1.8824 H   0  0
   -2.5067    4.6112    3.4042 H   0  0
   -1.5835    3.9699    0.1628 H   0  0
   -2.1994    1.9523   -1.1668 H   0  0
   -4.0144    1.0581    0.0785 H   0  0
   -2.8728   -0.2557    0.0912 H   0  0
   -3.5447    2.2367    3.4959 H   0  0
   -4.6388    2.2459    2.0931 H   0  0
   -1.1002    1.2815    2.6073 H   0  0
   -2.0596    0.3237    3.7072 H   0  0
    0.2850   -2.8358    0.0575 H   0  0
   -0.1094   -5.1878    1.6599 H   0  0
   -1.1264   -5.8623    3.8171 H   0  0
   -2.2359   -4.2273    5.2635 H   0  0
   -2.3766   -1.8537    4.6216 H   0  0
    0.0547    1.9761   -0.7878 H   0  0
    0.0012    1.6890    0.8783 H   0  0
    0.3849   -3.4268   -3.3323 H   0  0
    0.0024   -1.8695   -4.0718 H   0  0
   -1.2647   -2.8010   -3.2551 H   0  0
    1.8190   -0.9741    1.6755 H   0  0
    4.3006    0.8489   -2.1728 H   0  0
    1.5829    1.9018   -4.2959 H   0  0
    2.9375    0.8040   -4.0613 H   0  0
    2.9206    2.3967   -3.2656 H   0  0
    6.6687    0.8354   -1.5822 H   0  0
    7.7965    0.3679   -0.3249 H   0  0
    6.6851    1.7186   -0.0569 H   0  0
    5.6638    0.7039    1.8145 H   0  0
    7.4367    1.1226    2.9065 H   0  0
    7.6452   -0.8332    4.3889 H   0  0
    6.6712   -5.0743    5.1096 H   0  0
    8.4248   -5.2956    5.1757 H   0  0
    7.6119   -5.1525    3.6115 H   0  0
    6.6045    0.9731    5.3128 H   0  0
    5.9260    1.4277    3.7911 H   0  0
    4.8255    2.6331    5.6018 H   0  0
    4.3194    1.1443    6.3746 H   0  0
    3.6434    1.6084    4.8156 H   0  0
    5.9848   -1.2365    6.4907 H   0  0
    4.0130   -2.3883    7.0425 H   0  0
    2.5318   -3.1627    5.2167 H   0  0
    2.2009   -1.4431    5.2860 H   0  0
    4.5915   -3.8056    3.6123 H   0  0
    3.1161   -3.8966    2.7014 H   0  0
    5.6883   -3.0806    1.7767 H   0  0
    4.2144   -3.0337    0.8239 H   0  0
    3.6054   -0.0457    3.4377 H   0  0
   11.2427   -2.6533    2.1479 H   0  0
   10.5811   -2.4250    0.5260 H   0  0
    9.9716   -3.7292    1.5593 H   0  0
   -3.7887    0.1317    2.2272 H   0  0
  1  2  1  0
  1 58  1  0
  1 59  1  0
  1 60  1  0
  2  3  1  0
  2 61  1  0
  2 62  1  0
  3  4  2  0
  3  8  1  0
  4  5  1  0
  4 63  1  0
  5  6  1  0
  5 64  1  0
  5 20  1  0
  6  7  1  0
  6 65  1  0
  6 66  1  0
  7  8  1  0
  7  9  1  0
  7112  1  0
  8 67  1  0
  8 68  1  0
  9 10  1  0
  9 69  1  0
  9 70  1  0
 10 11  2  0
 10 18  1  0
 11 12  1  0
 11 19  1  0
 12 13  1  0
 12 71  1  0
 13 14  2  0
 13 18  1  0
 14 15  1  0
 14 72  1  0
 15 16  2  0
 15 73  1  0
 16 17  1  0
 16 74  1  0
 17 18  2  0
 17 75  1  0
 19 20  1  0
 19 21  1  0
 19 25  1  0
 20 76  1  0
 20 77  1  0
 21 22  2  0
 21 23  1  0
 23 24  1  0
 24 78  1  0
 24 79  1  0
 24 80  1  0
 25 26  2  0
 25 30  1  0
 26 27  1  0
 26 81  1  0
 27 28  2  0
 27 52  1  0
 28 29  1  0
 28 33  1  0
 29 30  2  0
 29 82  1  0
 30 31  1  0
 31 32  1  0
 32 83  1  0
 32 84  1  0
 32 85  1  0
 33 34  1  0
 33 35  1  0
 34 86  1  0
 34 87  1  0
 34 88  1  0
 35 36  1  0
 35 89  1  0
 35 52  1  0
 36 37  1  0
 36 38  1  0
 36 54  1  0
 37 90  1  0
 38 39  1  0
 38 43  1  0
 38 91  1  0
 39 40  1  0
 40 41  2  0
 40 42  1  0
 42 92  1  0
 42 93  1  0
 42 94  1  0
 43 44  1  0
 43 46  1  0
 43 53  1  0
 44 45  1  0
 44 95  1  0
 44 96  1  0
 45 97  1  0
 45 98  1  0
 45 99  1  0
 46 47  2  0
 46100  1  0
 47 48  1  0
 47101  1  0
 48 49  1  0
 48102  1  0
 48103  1  0
 49 50  1  0
 49 53  1  0
 50 51  1  0
 50104  1  0
 50105  1  0
 51 52  1  0
 51106  1  0
 51107  1  0
 52 53  1  0
 53108  1  0
 54 55  2  0
 54 56  1  0
 56 57  1  0
 57109  1  0
 57110  1  0
 57111  1  0
M  CHG  1   7   1
M  END
> <Mol2_MolInfo_Name>
14460

> <Mol2_MolInfo_Type>
SMALL

> <Mol2_MolInfo_Charge>
USER_CHARGES

> <Mol2_Substructures>
     1 ****        1 GROUP             0       ****    0 ROOT    

> <Name>
14460

$$$$
14460
  SciTegic06232017503D

112120  0  0  0  0            999 V2000
   -2.0767    6.0390   -1.2717 C   0  0
   -2.7594    4.9300   -2.0927 C   0  0
   -2.6883    3.5019   -1.5520 C   0  0
   -2.0789    3.1695   -0.3880 C   0  0
   -1.9419    1.7495    0.1646 C   0  0  1  0  0  0
   -2.9428    0.8037   -0.5575 C   0  0
   -2.9091    1.0131   -2.0885 N   0  3  1  0  0  0
   -3.3930    2.4479   -2.4152 C   0  0
   -1.5415    0.7052   -2.7495 C   0  0
   -0.9824   -0.6296   -2.2729 C   0  0
   -0.3497   -0.9593   -1.0595 C   0  0
    0.0118   -2.2895   -1.1382 N   0  0
   -0.3709   -2.8593   -2.3251 C   0  0
   -0.2188   -4.1624   -2.8111 C   0  0
   -0.7288   -4.4266   -4.0820 C   0  0
   -1.3588   -3.4412   -4.8367 C   0  0
   -1.5047   -2.1443   -4.3472 C   0  0
   -1.0084   -1.8309   -3.0688 C   0  0
    0.0132   -0.1626    0.2291 C   0  0  1  0  0  0
   -0.4274    1.3528    0.1299 C   0  0
   -0.7195   -0.7609    1.4810 C   0  0
   -1.3830   -1.8011    1.4275 O   0  0
   -0.5697   -0.0051    2.6002 O   0  0
   -1.1662   -0.3996    3.8267 C   0  0
    1.5885   -0.2168    0.3415 C   0  0
    2.2860    0.4124   -0.7082 C   0  0
    3.6732    0.4549   -0.7671 C   0  0
    4.4193   -0.1645    0.2304 C   0  0
    3.7724   -0.7891    1.2909 C   0  0
    2.3657   -0.8615    1.3506 C   0  0
    1.7413   -1.5732    2.3603 O   0  0
    2.4955   -2.2309    3.3741 C   0  0
    5.7732    0.0877   -0.0251 N   0  0
    6.8222   -0.8398    0.3917 C   0  0
    5.8436    0.3451   -1.4670 C   0  0  2  0  0  0
    7.1183    0.8560   -2.2477 C   0  0  1  0  0  0
    7.9288   -0.2896   -2.4902 O   0  0
    6.7276    1.4556   -3.6699 C   0  0  2  0  0  0
    6.7307    2.8976   -3.6941 O   0  0
    7.5202    3.6274   -4.5189 C   0  0
    8.3175    3.1905   -5.3492 O   0  0
    7.3245    5.1238   -4.3181 C   0  0
    5.3814    0.8943   -4.2976 C   0  0  2  0  0  0
    5.6449   -0.5822   -4.7534 C   0  0
    4.4954   -1.3048   -5.4900 C   0  0
    5.0637    1.6499   -5.6051 C   0  0
    3.9165    2.3044   -5.8521 C   0  0
    2.8036    2.3907   -4.8314 C   0  0
    3.2767    2.1867   -3.4675 N   0  0  2  0  0  0
    3.7750    3.2974   -2.6799 C   0  0
    4.5533    2.6827   -1.5140 C   0  0
    4.5727    1.1485   -1.7745 C   0  0  2  0  0  0
    4.1618    1.0361   -3.2656 C   0  0  2  0  0  0
    8.0390    1.8205   -1.4308 C   0  0
    7.6871    2.3196   -0.3587 O   0  0
    9.2297    2.0642   -2.0378 O   0  0
   10.1751    2.9473   -1.4533 C   0  0
   -2.1849    7.0055   -1.7647 H   0  0
   -1.0086    5.8503   -1.1562 H   0  0
   -2.5170    6.1290   -0.2780 H   0  0
   -3.8119    5.1869   -2.2203 H   0  0
   -2.3256    4.9265   -3.0937 H   0  0
   -1.6086    3.9530    0.1869 H   0  0
   -2.2511    1.7752    1.2105 H   0  0
   -2.8091   -0.2572   -0.3571 H   0  0
   -3.9703    1.0358   -0.2708 H   0  0
   -4.4589    2.4456   -2.1823 H   0  0
   -3.2616    2.6000   -3.4880 H   0  0
   -1.7758    0.6984   -3.8146 H   0  0
   -0.8914    1.5600   -2.5838 H   0  0
    0.4919   -2.7499   -0.3784 H   0  0
    0.2686   -4.9357   -2.2357 H   0  0
   -0.6323   -5.4216   -4.4914 H   0  0
   -1.7399   -3.6860   -5.8175 H   0  0
   -1.9957   -1.3954   -4.9502 H   0  0
    0.0306    1.8076   -0.7426 H   0  0
    0.0561    1.9024    0.9412 H   0  0
   -0.9238    0.3233    4.6057 H   0  0
   -0.7976   -1.3764    4.1437 H   0  0
   -2.2520   -0.4508    3.7348 H   0  0
    1.7421    0.8801   -1.5139 H   0  0
    4.3830   -1.2386    2.0580 H   0  0
    1.8115   -2.7322    4.0585 H   0  0
    3.0839   -1.5222    3.9587 H   0  0
    3.1560   -2.9911    2.9543 H   0  0
    6.7230   -1.0646    1.4538 H   0  0
    7.8159   -0.4180    0.2460 H   0  0
    6.7598   -1.7817   -0.1554 H   0  0
    5.6540   -0.6458   -1.8904 H   0  0
    8.1199   -0.7106   -1.6489 H   0  0
    7.5267    1.1573   -4.3524 H   0  0
    6.2719    5.3864   -4.4249 H   0  0
    7.8973    5.6894   -5.0534 H   0  0
    7.6571    5.4158   -3.3220 H   0  0
    6.5222   -0.6106   -5.4027 H   0  0
    5.9117   -1.2055   -3.9036 H   0  0
    4.8013   -2.3120   -5.7740 H   0  0
    4.2081   -0.7891   -6.4065 H   0  0
    3.6054   -1.4068   -4.8702 H   0  0
    5.8029    1.6431   -6.3937 H   0  0
    3.7880    2.7734   -6.8164 H   0  0
    2.3358    3.3731   -4.9053 H   0  0
    2.0430    1.6563   -5.0985 H   0  0
    4.4088    3.9457   -3.2862 H   0  0
    2.9464    3.9264   -2.3529 H   0  0
    5.5479    3.1166   -1.5187 H   0  0
    4.0846    2.9402   -0.5626 H   0  0
    3.5296    0.1594   -3.3974 H   0  0
   11.0565    3.0192   -2.0906 H   0  0
   10.4921    2.5901   -0.4724 H   0  0
    9.7563    3.9482   -1.3391 H   0  0
   -3.5804    0.3681   -2.4811 H   0  0
  1  2  1  0
  1 58  1  0
  1 59  1  0
  1 60  1  0
  2  3  1  0
  2 61  1  0
  2 62  1  0
  3  4  2  0
  3  8  1  0
  4  5  1  0
  4 63  1  0
  5  6  1  0
  5 64  1  0
  5 20  1  0
  6  7  1  0
  6 65  1  0
  6 66  1  0
  7  8  1  0
  7  9  1  0
  7112  1  0
  8 67  1  0
  8 68  1  0
  9 10  1  0
  9 69  1  0
  9 70  1  0
 10 11  2  0
 10 18  1  0
 11 12  1  0
 11 19  1  0
 12 13  1  0
 12 71  1  0
 13 14  2  0
 13 18  1  0
 14 15  1  0
 14 72  1  0
 15 16  2  0
 15 73  1  0
 16 17  1  0
 16 74  1  0
 17 18  2  0
 17 75  1  0
 19 20  1  0
 19 21  1  0
 19 25  1  0
 20 76  1  0
 20 77  1  0
 21 22  2  0
 21 23  1  0
 23 24  1  0
 24 78  1  0
 24 79  1  0
 24 80  1  0
 25 26  2  0
 25 30  1  0
 26 27  1  0
 26 81  1  0
 27 28  2  0
 27 52  1  0
 28 29  1  0
 28 33  1  0
 29 30  2  0
 29 82  1  0
 30 31  1  0
 31 32  1  0
 32 83  1  0
 32 84  1  0
 32 85  1  0
 33 34  1  0
 33 35  1  0
 34 86  1  0
 34 87  1  0
 34 88  1  0
 35 36  1  0
 35 89  1  0
 35 52  1  0
 36 37  1  0
 36 38  1  0
 36 54  1  0
 37 90  1  0
 38 39  1  0
 38 43  1  0
 38 91  1  0
 39 40  1  0
 40 41  2  0
 40 42  1  0
 42 92  1  0
 42 93  1  0
 42 94  1  0
 43 44  1  0
 43 46  1  0
 43 53  1  0
 44 45  1  0
 44 95  1  0
 44 96  1  0
 45 97  1  0
 45 98  1  0
 45 99  1  0
 46 47  2  0
 46100  1  0
 47 48  1  0
 47101  1  0
 48 49  1  0
 48102  1  0
 48103  1  0
 49 50  1  0
 49 53  1  0
 50 51  1  0
 50104  1  0
 50105  1  0
 51 52  1  0
 51106  1  0
 51107  1  0
 52 53  1  0
 53108  1  0
 54 55  2  0
 54 56  1  0
 56 57  1  0
 57109  1  0
 57110  1  0
 57111  1  0
M  CHG  1   7   1
M  END
> <Mol2_MolInfo_Name>
14460

> <Mol2_MolInfo_Type>
SMALL

> <Mol2_MolInfo_Charge>
USER_CHARGES

> <Mol2_Substructures>
     1 ****        1 GROUP             0       ****    0 ROOT    

> <Name>
14460

$$$$
14460
  SciTegic06232017503D

112120  0  0  0  0            999 V2000
   -5.1874    1.2352    4.1264 C   0  0
   -3.6992    0.9532    3.8760 C   0  0
   -3.3070    0.9582    2.4058 C   0  0
   -2.3915    1.8356    1.9131 C   0  0
   -1.9425    1.8856    0.4386 C   0  0  2  0  0  0
   -2.9375    1.1279   -0.4476 C   0  0
   -3.0612   -0.2226    0.2664 N   0  3  1  0  0  0
   -3.9555   -0.1134    1.5109 C   0  0
   -3.1302   -1.4316   -0.6535 C   0  0
   -1.7951   -1.4765   -1.3975 C   0  0
   -0.5198   -0.9251   -1.0682 C   0  0
    0.3180   -1.3105   -2.0964 N   0  0
   -0.3131   -2.0378   -3.0715 C   0  0
    0.1661   -2.5948   -4.2626 C   0  0
   -0.7522   -3.2911   -5.0484 C   0  0
   -2.0840   -3.4291   -4.6680 C   0  0
   -2.5517   -2.8723   -3.4789 C   0  0
   -1.6606   -2.1603   -2.6560 C   0  0
    0.0634   -0.0899    0.1513 C   0  0  1  0  0  0
   -0.4584    1.4306    0.1859 C   0  0
   -0.3285   -0.7675    1.5166 C   0  0
   -0.2475   -0.1514    2.5838 O   0  0
   -0.6924   -2.0707    1.4191 O   0  0
   -1.0497   -2.8137    2.5750 C   0  0
    1.6578   -0.0157    0.0709 C   0  0
    2.4937   -0.6328    1.0346 C   0  0
    3.8817   -0.5423    0.9946 C   0  0
    4.4943    0.1655   -0.0356 C   0  0
    3.7189    0.7332   -1.0379 C   0  0
    2.3135    0.6649   -0.9961 C   0  0
    1.5430    1.2236   -2.0020 O   0  0
    2.1514    1.9006   -3.0975 C   0  0
    5.8814    0.0384    0.1123 N   0  0
    6.8016    1.0728   -0.3541 C   0  0
    6.0791   -0.2371    1.5371 C   0  0  2  0  0  0
    7.4576   -0.6032    2.2185 C   0  0  1  0  0  0
    8.1057    0.6338    2.5051 O   0  0
    7.2424   -1.3185    3.6197 C   0  0  2  0  0  0
    7.3872   -2.7508    3.5493 O   0  0
    8.3315   -3.4388    4.2354 C   0  0
    9.1712   -2.9682    5.0029 O   0  0
    8.2563   -4.9349    3.9635 C   0  0
    5.9016   -0.9284    4.3773 C   0  0  2  0  0  0
    6.0463    0.5454    4.8914 C   0  0
    4.9200    1.0874    5.7984 C   0  0
    5.7724   -1.7751    5.6605 C   0  0
    4.7043   -2.5270    5.9750 C   0  0
    3.5083   -2.6460    5.0566 C   0  0
    3.8428   -2.3598    3.6666 N   0  0  2  0  0  0
    4.3614   -3.4034    2.8045 C   0  0
    5.0047   -2.6959    1.6100 C   0  0
    4.9170   -1.1719    1.9137 C   0  0  2  0  0  0
    4.6186   -1.1379    3.4363 C   0  0  2  0  0  0
    8.4793   -1.3729    1.3133 C   0  0
    9.6999   -1.2752    1.4829 O   0  0
    7.9074   -2.1368    0.3564 O   0  0
    8.7030   -2.8977   -0.5407 C   0  0
   -5.4071    1.2383    5.1943 H   0  0
   -5.8215    0.4778    3.6640 H   0  0
   -5.4781    2.2071    3.7261 H   0  0
   -3.1018    1.6830    4.4251 H   0  0
   -3.4378   -0.0199    4.2938 H   0  0
   -1.9477    2.5445    2.5974 H   0  0
   -2.0058    2.9369    0.1526 H   0  0
   -3.9304    1.5816   -0.4629 H   0  0
   -2.5958    1.0009   -1.4755 H   0  0
   -3.9555   -1.0980    1.9802 H   0  0
   -4.9600    0.1455    1.1735 H   0  0
   -3.2928   -2.2945   -0.0067 H   0  0
   -4.0088   -1.2649   -1.2785 H   0  0
    1.2934   -1.0484   -2.0935 H   0  0
    1.1974   -2.4954   -4.5678 H   0  0
   -0.4224   -3.7354   -5.9764 H   0  0
   -2.7648   -3.9756   -5.3048 H   0  0
   -3.5884   -2.9899   -3.2000 H   0  0
   -0.2434    1.8859   -0.7751 H   0  0
    0.1656    1.9931    0.8839 H   0  0
   -1.3258   -3.8290    2.2908 H   0  0
   -1.9006   -2.3597    3.0849 H   0  0
   -0.2153   -2.8714    3.2754 H   0  0
    2.0920   -1.2130    1.8490 H   0  0
    4.2261    1.2287   -1.8506 H   0  0
    1.3738    2.2690   -3.7662 H   0  0
    2.7910    1.2317   -3.6755 H   0  0
    2.7335    2.7612   -2.7642 H   0  0
    6.6065    1.3027   -1.4016 H   0  0
    7.8406    0.7537   -0.2856 H   0  0
    6.6853    1.9947    0.2174 H   0  0
    5.8122    0.7199    1.9976 H   0  0
    7.5574    1.1330    3.1147 H   0  0
    8.0601   -0.9815    4.2610 H   0  0
    7.2689   -5.3168    4.2236 H   0  0
    9.0000   -5.4719    4.5526 H   0  0
    8.4410   -5.1353    2.9081 H   0  0
    6.9875    0.6544    5.4336 H   0  0
    6.1216    1.2330    4.0526 H   0  0
    5.1206    2.1223    6.0761 H   0  0
    4.8325    0.5207    6.7253 H   0  0
    3.9493    1.0727    5.3046 H   0  0
    6.5813   -1.7477    6.3769 H   0  0
    4.7029   -3.0519    6.9189 H   0  0
    3.1081   -3.6582    5.1272 H   0  0
    2.7341   -1.9704    5.4219 H   0  0
    5.0882   -4.0152    3.3407 H   0  0
    3.5611   -4.0851    2.5147 H   0  0
    6.0248   -3.0530    1.5474 H   0  0
    4.5017   -2.9703    0.6811 H   0  0
    3.9336   -0.3170    3.6452 H   0  0
    8.0614   -3.4481   -1.2285 H   0  0
    9.3202   -3.6183   -0.0023 H   0  0
    9.3562   -2.2517   -1.1290 H   0  0
   -2.1411   -0.3519    0.6633 H   0  0
  1  2  1  0
  1 58  1  0
  1 59  1  0
  1 60  1  0
  2  3  1  0
  2 61  1  0
  2 62  1  0
  3  4  2  0
  3  8  1  0
  4  5  1  0
  4 63  1  0
  5  6  1  0
  5 64  1  0
  5 20  1  0
  6  7  1  0
  6 65  1  0
  6 66  1  0
  7  8  1  0
  7  9  1  0
  7112  1  0
  8 67  1  0
  8 68  1  0
  9 10  1  0
  9 69  1  0
  9 70  1  0
 10 11  2  0
 10 18  1  0
 11 12  1  0
 11 19  1  0
 12 13  1  0
 12 71  1  0
 13 14  2  0
 13 18  1  0
 14 15  1  0
 14 72  1  0
 15 16  2  0
 15 73  1  0
 16 17  1  0
 16 74  1  0
 17 18  2  0
 17 75  1  0
 19 20  1  0
 19 21  1  0
 19 25  1  0
 20 76  1  0
 20 77  1  0
 21 22  2  0
 21 23  1  0
 23 24  1  0
 24 78  1  0
 24 79  1  0
 24 80  1  0
 25 26  2  0
 25 30  1  0
 26 27  1  0
 26 81  1  0
 27 28  2  0
 27 52  1  0
 28 29  1  0
 28 33  1  0
 29 30  2  0
 29 82  1  0
 30 31  1  0
 31 32  1  0
 32 83  1  0
 32 84  1  0
 32 85  1  0
 33 34  1  0
 33 35  1  0
 34 86  1  0
 34 87  1  0
 34 88  1  0
 35 36  1  0
 35 89  1  0
 35 52  1  0
 36 37  1  0
 36 38  1  0
 36 54  1  0
 37 90  1  0
 38 39  1  0
 38 43  1  0
 38 91  1  0
 39 40  1  0
 40 41  2  0
 40 42  1  0
 42 92  1  0
 42 93  1  0
 42 94  1  0
 43 44  1  0
 43 46  1  0
 43 53  1  0
 44 45  1  0
 44 95  1  0
 44 96  1  0
 45 97  1  0
 45 98  1  0
 45 99  1  0
 46 47  2  0
 46100  1  0
 47 48  1  0
 47101  1  0
 48 49  1  0
 48102  1  0
 48103  1  0
 49 50  1  0
 49 53  1  0
 50 51  1  0
 50104  1  0
 50105  1  0
 51 52  1  0
 51106  1  0
 51107  1  0
 52 53  1  0
 53108  1  0
 54 55  2  0
 54 56  1  0
 56 57  1  0
 57109  1  0
 57110  1  0
 57111  1  0
M  CHG  1   7   1
M  END
> <Mol2_MolInfo_Name>
14460

> <Mol2_MolInfo_Type>
SMALL

> <Mol2_MolInfo_Charge>
USER_CHARGES

> <Mol2_Substructures>
     1 ****        1 GROUP             0       ****    0 ROOT    

> <Name>
14460

$$$$
14460
  SciTegic06232017503D

112120  0  0  0  0            999 V2000
    3.9509    4.4434   -2.7978 C   0  0
    3.4641    3.5684   -1.6344 C   0  0
    2.1606    2.8352   -1.9144 C   0  0
    1.0405    3.0614   -1.1761 C   0  0
   -0.3036    2.3354   -1.3859 C   0  0  1  0  0  0
   -0.3278    1.6761   -2.7692 C   0  0
    0.9770    0.8675   -2.7798 N   0  3  2  0  0  0
    2.1860    1.7798   -3.0344 C   0  0
    0.8682   -0.5162   -3.4078 C   0  0
   -0.1369   -1.2705   -2.5372 C   0  0
   -0.4843   -1.0792   -1.1692 C   0  0
   -1.5279   -1.9560   -0.9279 N   0  0
   -1.8144   -2.7577   -2.0035 C   0  0
   -2.7480   -3.7880   -2.1616 C   0  0
   -2.7913   -4.4160   -3.4064 C   0  0
   -1.9489   -4.0357   -4.4475 C   0  0
   -1.0238   -3.0062   -4.2827 C   0  0
   -0.9413   -2.3493   -3.0425 C   0  0
    0.0272   -0.0985   -0.0282 C   0  0  1  0  0  0
   -0.6745    1.3346   -0.2319 C   0  0
   -0.3426   -0.7054    1.3807 C   0  0
   -0.0511   -1.8735    1.6621 O   0  0
   -0.9917    0.1352    2.2238 O   0  0
   -1.3652   -0.2849    3.5279 C   0  0
    1.5956   -0.0370    0.0948 C   0  0
    2.3840   -1.0234   -0.5305 C   0  0
    3.7725   -1.0342   -0.4344 C   0  0
    4.4137   -0.0620    0.3316 C   0  0
    3.6686    0.9252    0.9672 C   0  0
    2.2634    0.9274    0.8958 C   0  0
    1.5006    1.8391    1.6028 O   0  0
    2.1244    2.8274    2.4160 C   0  0
    5.7956   -0.2565    0.2122 N   0  0
    6.7157    0.1253    1.2809 C   0  0
    5.9398   -1.6770   -0.1188 C   0  0  2  0  0  0
    7.2961   -2.4007   -0.4875 C   0  0  1  0  0  0
    7.9044   -2.7698    0.7479 O   0  0
    7.0377   -3.7596   -1.2679 C   0  0  2  0  0  0
    7.2155   -3.6403   -2.6929 O   0  0
    8.2125   -4.2550   -3.3731 C   0  0
    9.0863   -4.9814   -2.8991 O   0  0
    8.1556   -3.9509   -4.8638 C   0  0
    5.6577   -4.4756   -0.9410 C   0  0  2  0  0  0
    5.7485   -5.0630    0.5095 C   0  0
    4.5737   -5.9454    0.9861 C   0  0
    5.4935   -5.7108   -1.8511 C   0  0
    4.4273   -5.9456   -2.6344 C   0  0
    3.2722   -4.9736   -2.7303 C   0  0
    3.6593   -3.6128   -2.3775 N   0  0  2  0  0  0
    4.2618   -2.7468   -3.3705 C   0  0
    4.9189   -1.6029   -2.5966 C   0  0
    4.7817   -1.9654   -1.0891 C   0  0  2  0  0  0
    4.4190   -3.4730   -1.1310 C   0  0  2  0  0  0
    8.3706   -1.5058   -1.1948 C   0  0
    9.5810   -1.7281   -1.0774 O   0  0
    7.8554   -0.4953   -1.9286 O   0  0
    8.7025    0.3995   -2.6339 C   0  0
    4.8773    4.9555   -2.5361 H   0  0
    3.2136    5.2045   -3.0554 H   0  0
    4.1462    3.8487   -3.6908 H   0  0
    4.2264    2.8260   -1.3939 H   0  0
    3.3608    4.1874   -0.7416 H   0  0
    1.0952    3.7946   -0.3840 H   0  0
   -1.0684    3.1137   -1.3945 H   0  0
   -1.1967    1.0373   -2.9308 H   0  0
   -0.2726    2.3966   -3.5876 H   0  0
    2.0797    2.1985   -4.0362 H   0  0
    3.0710    1.1472   -2.9814 H   0  0
    0.5549   -0.3368   -4.4375 H   0  0
    1.8725   -0.9366   -3.3912 H   0  0
   -1.9731   -1.9996   -0.0225 H   0  0
   -3.4071   -4.0920   -1.3615 H   0  0
   -3.4969   -5.2179   -3.5679 H   0  0
   -2.0147   -4.5462   -5.3974 H   0  0
   -0.3794   -2.7231   -5.1019 H   0  0
   -0.6503    1.9346    0.6759 H   0  0
   -1.7411    1.1324   -0.3489 H   0  0
   -1.8728    0.5286    4.0463 H   0  0
   -0.4893   -0.5669    4.1140 H   0  0
   -2.0444   -1.1375    3.4861 H   0  0
    1.9272   -1.8177   -1.0965 H   0  0
    4.1936    1.6729    1.5403 H   0  0
    1.3555    3.4421    2.8838 H   0  0
    2.7592    3.4890    1.8246 H   0  0
    2.7155    2.3758    3.2138 H   0  0
    6.5629    1.1706    1.5498 H   0  0
    7.7569    0.0238    0.9784 H   0  0
    6.5552   -0.4764    2.1769 H   0  0
    5.6360   -2.1664    0.8126 H   0  0
    7.3187   -3.3745    1.2090 H   0  0
    7.8156   -4.4536   -0.9417 H   0  0
    7.1990   -4.2691   -5.2783 H   0  0
    8.9520   -4.4728   -5.3945 H   0  0
    8.2710   -2.8806   -5.0352 H   0  0
    6.6632   -5.6502    0.6115 H   0  0
    5.8445   -4.2602    1.2366 H   0  0
    4.7400   -6.2773    2.0112 H   0  0
    4.4611   -6.8416    0.3759 H   0  0
    3.6241   -5.4121    0.9738 H   0  0
    6.2726   -6.4598   -1.8449 H   0  0
    4.3968   -6.8631   -3.2034 H   0  0
    2.8832   -4.9821   -3.7493 H   0  0
    2.4736   -5.3353   -2.0817 H   0  0
    4.9916   -3.2972   -3.9658 H   0  0
    3.5102   -2.4097   -4.0842 H   0  0
    5.9492   -1.5585   -2.9253 H   0  0
    4.4541   -0.6494   -2.8447 H   0  0
    3.7096   -3.6899   -0.3334 H   0  0
    8.0995    1.1319   -3.1704 H   0  0
    9.3169   -0.1336   -3.3611 H   0  0
    9.3610    0.9365   -1.9496 H   0  0
    1.0906    0.6138   -1.8077 H   0  0
  1  2  1  0
  1 58  1  0
  1 59  1  0
  1 60  1  0
  2  3  1  0
  2 61  1  0
  2 62  1  0
  3  4  2  0
  3  8  1  0
  4  5  1  0
  4 63  1  0
  5  6  1  0
  5 64  1  0
  5 20  1  0
  6  7  1  0
  6 65  1  0
  6 66  1  0
  7  8  1  0
  7  9  1  0
  7112  1  0
  8 67  1  0
  8 68  1  0
  9 10  1  0
  9 69  1  0
  9 70  1  0
 10 11  2  0
 10 18  1  0
 11 12  1  0
 11 19  1  0
 12 13  1  0
 12 71  1  0
 13 14  2  0
 13 18  1  0
 14 15  1  0
 14 72  1  0
 15 16  2  0
 15 73  1  0
 16 17  1  0
 16 74  1  0
 17 18  2  0
 17 75  1  0
 19 20  1  0
 19 21  1  0
 19 25  1  0
 20 76  1  0
 20 77  1  0
 21 22  2  0
 21 23  1  0
 23 24  1  0
 24 78  1  0
 24 79  1  0
 24 80  1  0
 25 26  2  0
 25 30  1  0
 26 27  1  0
 26 81  1  0
 27 28  2  0
 27 52  1  0
 28 29  1  0
 28 33  1  0
 29 30  2  0
 29 82  1  0
 30 31  1  0
 31 32  1  0
 32 83  1  0
 32 84  1  0
 32 85  1  0
 33 34  1  0
 33 35  1  0
 34 86  1  0
 34 87  1  0
 34 88  1  0
 35 36  1  0
 35 89  1  0
 35 52  1  0
 36 37  1  0
 36 38  1  0
 36 54  1  0
 37 90  1  0
 38 39  1  0
 38 43  1  0
 38 91  1  0
 39 40  1  0
 40 41  2  0
 40 42  1  0
 42 92  1  0
 42 93  1  0
 42 94  1  0
 43 44  1  0
 43 46  1  0
 43 53  1  0
 44 45  1  0
 44 95  1  0
 44 96  1  0
 45 97  1  0
 45 98  1  0
 45 99  1  0
 46 47  2  0
 46100  1  0
 47 48  1  0
 47101  1  0
 48 49  1  0
 48102  1  0
 48103  1  0
 49 50  1  0
 49 53  1  0
 50 51  1  0
 50104  1  0
 50105  1  0
 51 52  1  0
 51106  1  0
 51107  1  0
 52 53  1  0
 53108  1  0
 54 55  2  0
 54 56  1  0
 56 57  1  0
 57109  1  0
 57110  1  0
 57111  1  0
M  CHG  1   7   1
M  END
> <Mol2_MolInfo_Name>
14460

> <Mol2_MolInfo_Type>
SMALL

> <Mol2_MolInfo_Charge>
USER_CHARGES

> <Mol2_Substructures>
     1 ****        1 GROUP             0       ****    0 ROOT    

> <Name>
14460

$$$$
14460
  SciTegic06232017503D

112120  0  0  0  0            999 V2000
   -2.1137    6.2133   -3.3688 C   0  0
   -2.3875    5.1947   -2.2530 C   0  0
   -1.5495    3.9272   -2.3501 C   0  0
   -0.6384    3.6091   -1.4021 C   0  0
    0.2119    2.3385   -1.3883 C   0  0  2  0  0  0
    0.1996    1.6935   -2.8004 C   0  0
   -1.2327    1.6068   -3.3712 N   0  3  2  0  0  0
   -1.7847    3.0397   -3.5794 C   0  0
   -2.2011    0.7318   -2.5356 C   0  0
   -1.5749   -0.6066   -2.1491 C   0  0
   -0.6269   -0.9144   -1.1490 C   0  0
   -0.4621   -2.2875   -1.1677 N   0  0
   -1.2024   -2.8894   -2.1514 C   0  0
   -1.3104   -4.2320   -2.5302 C   0  0
   -2.1675   -4.5219   -3.5914 C   0  0
   -2.8849   -3.5245   -4.2454 C   0  0
   -2.7727   -2.1895   -3.8611 C   0  0
   -1.9187   -1.8480   -2.7968 C   0  0
    0.1708   -0.0602   -0.1141 C   0  0  1  0  0  0
   -0.2500    1.4561   -0.1863 C   0  0
   -0.2456   -0.6134    1.3006 C   0  0
   -1.0712   -0.0382    2.0167 O   0  0
    0.3938   -1.7641    1.6415 O   0  0
    0.1530   -2.3850    2.8956 C   0  0
    1.7472   -0.1188   -0.2079 C   0  0
    2.4744    0.4934    0.8347 C   0  0
    3.8644    0.5293    0.8535 C   0  0
    4.5767   -0.0355   -0.2019 C   0  0
    3.8968   -0.6640   -1.2391 C   0  0
    2.4892   -0.6965   -1.2759 C   0  0
    1.8219   -1.2834   -2.3351 O   0  0
    2.5345   -1.8687   -3.4203 C   0  0
    5.9425    0.0667    0.0914 N   0  0
    6.9498    0.1668   -0.9621 C   0  0
    6.0413    1.1942    1.0216 C   0  0  2  0  0  0
    7.3530    1.6440    1.7804 C   0  0  1  0  0  0
    8.0621    2.4975    0.8854 O   0  0
    7.0159    2.5313    3.0532 C   0  0  2  0  0  0
    7.0766    1.7917    4.2889 O   0  0
    7.9383    2.0870    5.2918 C   0  0
    8.7633    3.0008    5.3064 O   0  0
    7.7861    1.1377    6.4723 C   0  0
    5.6620    3.3569    2.9611 C   0  0  2  0  0  0
    5.8683    4.5142    1.9241 C   0  0
    4.7299    5.5497    1.7903 C   0  0
    5.4095    4.0771    4.3020 C   0  0
    4.2819    3.9727    5.0246 C   0  0
    3.1335    3.0861    4.5968 C   0  0
    3.5611    2.0098    3.7107 N   0  0  2  0  0  0
    4.0554    0.7610    4.2556 C   0  0
    4.8134    0.0660    3.1233 C   0  0
    4.8038    1.0589    1.9247 C   0  0  2  0  0  0
    4.4228    2.4061    2.5935 C   0  0  2  0  0  0
    8.3711    0.4994    2.1112 C   0  0
    9.5833    0.7178    2.2149 O   0  0
    7.8048   -0.7174    2.2711 O   0  0
    8.5968   -1.8562    2.5738 C   0  0
   -2.7271    7.1054   -3.2386 H   0  0
   -2.3396    5.8006   -4.3526 H   0  0
   -1.0696    6.5282   -3.3686 H   0  0
   -2.2249    5.6783   -1.2883 H   0  0
   -3.4404    4.9100   -2.2678 H   0  0
   -0.5269    4.2871   -0.5679 H   0  0
    1.2457    2.6319   -1.1989 H   0  0
    0.7472    2.3097   -3.5158 H   0  0
    0.6364    0.7053   -2.8607 H   0  0
   -2.8346    2.9518   -3.8629 H   0  0
   -1.2182    3.4363   -4.4231 H   0  0
   -2.5545    1.3331   -1.7023 H   0  0
   -3.0541    0.6086   -3.2037 H   0  0
    0.1664   -2.7484   -0.5254 H   0  0
   -0.7595   -5.0150   -2.0300 H   0  0
   -2.2790   -5.5468   -3.9142 H   0  0
   -3.5396   -3.7900   -5.0627 H   0  0
   -3.3397   -1.4324   -4.3821 H   0  0
    0.1172    1.9715    0.7043 H   0  0
   -1.3284    1.5260   -0.0549 H   0  0
    0.7677   -3.2804    2.9887 H   0  0
   -0.8931   -2.6784    2.9930 H   0  0
    0.4037   -1.7145    3.7191 H   0  0
    1.9459    0.9416    1.6631 H   0  0
    4.4816   -1.1199   -2.0224 H   0  0
    1.8208   -2.2652   -4.1423 H   0  0
    3.1601   -2.6981   -3.0874 H   0  0
    3.1519   -1.1330   -3.9376 H   0  0
    6.8326   -0.6522   -1.6718 H   0  0
    7.9619    0.1020   -0.5652 H   0  0
    6.8549    1.1029   -1.5143 H   0  0
    5.8109    2.0489    0.3770 H   0  0
    7.5181    3.2664    0.7008 H   0  0
    7.8151    3.2724    3.1263 H   0  0
    6.7573    1.1425    6.8327 H   0  0
    8.4400    1.4347    7.2930 H   0  0
    8.0463    0.1221    6.1742 H   0  0
    6.7844    5.0591    2.1602 H   0  0
    6.0299    4.1053    0.9297 H   0  0
    4.9789    6.2922    1.0317 H   0  0
    4.5574    6.0909    2.7207 H   0  0
    3.7877    5.0920    1.4915 H   0  0
    6.1779    4.7345    4.6840 H   0  0
    4.1958    4.5497    5.9337 H   0  0
    2.6719    2.6549    5.4859 H   0  0
    2.3805    3.7142    4.1196 H   0  0
    4.7078    0.9503    5.1093 H   0  0
    3.2294    0.1640    4.6433 H   0  0
    5.8112   -0.1336    3.4930 H   0  0
    4.3547   -0.8942    2.8800 H   0  0
    3.7805    2.9684    1.9170 H   0  0
    7.9601   -2.7363    2.6629 H   0  0
    9.1284   -1.7240    3.5172 H   0  0
    9.3277   -2.0444    1.7862 H   0  0
   -1.1531    1.1754   -4.2812 H   0  0
  1  2  1  0
  1 58  1  0
  1 59  1  0
  1 60  1  0
  2  3  1  0
  2 61  1  0
  2 62  1  0
  3  4  2  0
  3  8  1  0
  4  5  1  0
  4 63  1  0
  5  6  1  0
  5 64  1  0
  5 20  1  0
  6  7  1  0
  6 65  1  0
  6 66  1  0
  7  8  1  0
  7  9  1  0
  7112  1  0
  8 67  1  0
  8 68  1  0
  9 10  1  0
  9 69  1  0
  9 70  1  0
 10 11  2  0
 10 18  1  0
 11 12  1  0
 11 19  1  0
 12 13  1  0
 12 71  1  0
 13 14  2  0
 13 18  1  0
 14 15  1  0
 14 72  1  0
 15 16  2  0
 15 73  1  0
 16 17  1  0
 16 74  1  0
 17 18  2  0
 17 75  1  0
 19 20  1  0
 19 21  1  0
 19 25  1  0
 20 76  1  0
 20 77  1  0
 21 22  2  0
 21 23  1  0
 23 24  1  0
 24 78  1  0
 24 79  1  0
 24 80  1  0
 25 26  2  0
 25 30  1  0
 26 27  1  0
 26 81  1  0
 27 28  2  0
 27 52  1  0
 28 29  1  0
 28 33  1  0
 29 30  2  0
 29 82  1  0
 30 31  1  0
 31 32  1  0
 32 83  1  0
 32 84  1  0
 32 85  1  0
 33 34  1  0
 33 35  1  0
 34 86  1  0
 34 87  1  0
 34 88  1  0
 35 36  1  0
 35 89  1  0
 35 52  1  0
 36 37  1  0
 36 38  1  0
 36 54  1  0
 37 90  1  0
 38 39  1  0
 38 43  1  0
 38 91  1  0
 39 40  1  0
 40 41  2  0
 40 42  1  0
 42 92  1  0
 42 93  1  0
 42 94  1  0
 43 44  1  0
 43 46  1  0
 43 53  1  0
 44 45  1  0
 44 95  1  0
 44 96  1  0
 45 97  1  0
 45 98  1  0
 45 99  1  0
 46 47  2  0
 46100  1  0
 47 48  1  0
 47101  1  0
 48 49  1  0
 48102  1  0
 48103  1  0
 49 50  1  0
 49 53  1  0
 50 51  1  0
 50104  1  0
 50105  1  0
 51 52  1  0
 51106  1  0
 51107  1  0
 52 53  1  0
 53108  1  0
 54 55  2  0
 54 56  1  0
 56 57  1  0
 57109  1  0
 57110  1  0
 57111  1  0
M  CHG  1   7   1
M  END
> <Mol2_MolInfo_Name>
14460

> <Mol2_MolInfo_Type>
SMALL

> <Mol2_MolInfo_Charge>
USER_CHARGES

> <Mol2_Substructures>
     1 ****        1 GROUP             0       ****    0 ROOT    

> <Name>
14460

$$$$
9982
  SciTegic06232017503D

 37 39  0  0  0  0            999 V2000
   -0.0257   -0.2108    0.2546 O   0  0
    1.3445   -0.1724    0.1726 C   0  0
    1.9890    1.0578    0.1736 C   0  0
    3.3861    1.1651    0.0921 C   0  0
    4.0887    2.5411    0.1048 C   0  0  2  0  0  0
    4.9315    2.7730    1.3853 C   0  0
    6.3150    2.1084    1.3328 N   0  3
    6.3818    0.5828    1.1746 C   0  0
    5.6822    0.0734   -0.0977 C   0  0
    4.1514   -0.0252   -0.0009 C   0  0
    3.4894   -1.2736    0.0104 C   0  0
    4.3835   -2.7620   -0.0678 Cl  0  0
    2.0938   -1.3439    0.0930 C   0  0
    1.4542   -2.5611    0.0973 O   0  0
    3.1668    3.7379   -0.1890 C   0  0
    3.0688    4.2333   -1.4949 C   0  0
    2.2518    5.3261   -1.7719 C   0  0
    1.5350    5.9305   -0.7423 C   0  0
    1.6281    5.4522    0.5622 C   0  0
    2.4452    4.3597    0.8395 C   0  0
   -0.4268    0.6602    0.3022 H   0  0
    1.3756    1.9432    0.2432 H   0  0
    4.7863    2.5399   -0.7340 H   0  0
    5.1958    3.8225    1.5242 H   0  0
    4.4558    2.4048    2.2956 H   0  0
    6.8272    2.5222    0.5665 H   0  0
    7.4563    0.3989    1.1416 H   0  0
    5.9779    0.1577    2.0947 H   0  0
    5.9648    0.6743   -0.9624 H   0  0
    6.1086   -0.9010   -0.3250 H   0  0
    0.4986   -2.4770    0.1408 H   0  0
    3.6213    3.7712   -2.3002 H   0  0
    2.1746    5.7043   -2.7809 H   0  0
    0.9012    6.7785   -0.9575 H   0  0
    1.0690    5.9269    1.3552 H   0  0
    2.5079    3.9939    1.8539 H   0  0
    6.8085    2.3528    2.1800 H   0  0
  1  2  1  0
  1 21  1  0
  2  3  2  0
  2 13  1  0
  3  4  1  0
  3 22  1  0
  4  5  1  0
  4 10  2  0
  5  6  1  0
  5 15  1  0
  5 23  1  0
  6  7  1  0
  6 24  1  0
  6 25  1  0
  7  8  1  0
  7 26  1  0
  7 37  1  0
  8  9  1  0
  8 27  1  0
  8 28  1  0
  9 10  1  0
  9 29  1  0
  9 30  1  0
 10 11  1  0
 11 12  1  0
 11 13  2  0
 13 14  1  0
 14 31  1  0
 15 16  2  0
 15 20  1  0
 16 17  1  0
 16 32  1  0
 17 18  2  0
 17 33  1  0
 18 19  1  0
 18 34  1  0
 19 20  2  0
 19 35  1  0
 20 36  1  0
M  CHG  1   7   1
M  END
> <Mol2_MolInfo_Name>
9982

> <Mol2_MolInfo_Type>
SMALL

> <Mol2_MolInfo_Charge>
USER_CHARGES

> <Mol2_Substructures>
     1 ****        1 GROUP             0       ****    0 ROOT    

> <Name>
9982

$$$$
9982
  SciTegic06232017503D

 37 39  0  0  0  0            999 V2000
   -0.0256   -0.2108   -0.2548 O   0  0
    1.3445   -0.1724   -0.1726 C   0  0
    1.9891    1.0579   -0.1738 C   0  0
    3.3861    1.1651   -0.0922 C   0  0
    4.0887    2.5411   -0.1049 C   0  0  1  0  0  0
    4.9315    2.7730   -1.3853 C   0  0
    6.3150    2.1084   -1.3330 N   0  3
    6.3818    0.5827   -1.1746 C   0  0
    5.6822    0.0734    0.0977 C   0  0
    4.1515   -0.0251    0.0009 C   0  0
    3.4894   -1.2735   -0.0101 C   0  0
    4.3835   -2.7619    0.0683 Cl  0  0
    2.0938   -1.3439   -0.0929 C   0  0
    1.4543   -2.5611   -0.0970 O   0  0
    3.1668    3.7379    0.1891 C   0  0
    3.0687    4.2332    1.4949 C   0  0
    2.2517    5.3260    1.7721 C   0  0
    1.5349    5.9304    0.7424 C   0  0
    1.6282    5.4523   -0.5621 C   0  0
    2.4453    4.3599   -0.8394 C   0  0
   -0.4267    0.6602   -0.3026 H   0  0
    1.3757    1.9432   -0.2436 H   0  0
    4.7863    2.5400    0.7339 H   0  0
    4.4557    2.4047   -2.2957 H   0  0
    5.1958    3.8225   -1.5244 H   0  0
    6.8084    2.3526   -2.1803 H   0  0
    5.9778    0.1576   -2.0946 H   0  0
    7.4562    0.3988   -1.1417 H   0  0
    6.1086   -0.9009    0.3251 H   0  0
    5.9649    0.6743    0.9625 H   0  0
    0.4986   -2.4769   -0.1407 H   0  0
    3.6211    3.7709    2.3003 H   0  0
    2.1744    5.7041    2.7810 H   0  0
    0.9011    6.7784    0.9577 H   0  0
    1.0691    5.9271   -1.3551 H   0  0
    2.5081    3.9941   -1.8539 H   0  0
    6.8273    2.5222   -0.5668 H   0  0
  1  2  1  0
  1 21  1  0
  2  3  2  0
  2 13  1  0
  3  4  1  0
  3 22  1  0
  4  5  1  0
  4 10  2  0
  5  6  1  0
  5 15  1  0
  5 23  1  0
  6  7  1  0
  6 24  1  0
  6 25  1  0
  7  8  1  0
  7 26  1  0
  7 37  1  0
  8  9  1  0
  8 27  1  0
  8 28  1  0
  9 10  1  0
  9 29  1  0
  9 30  1  0
 10 11  1  0
 11 12  1  0
 11 13  2  0
 13 14  1  0
 14 31  1  0
 15 16  2  0
 15 20  1  0
 16 17  1  0
 16 32  1  0
 17 18  2  0
 17 33  1  0
 18 19  1  0
 18 34  1  0
 19 20  2  0
 19 35  1  0
 20 36  1  0
M  CHG  1   7   1
M  END
> <Mol2_MolInfo_Name>
9982

> <Mol2_MolInfo_Type>
SMALL

> <Mol2_MolInfo_Charge>
USER_CHARGES

> <Mol2_Substructures>
     1 ****        1 GROUP             0       ****    0 ROOT    

> <Name>
9982

$$$$
9982
  SciTegic06232017503D

 36 38  0  0  0  0            999 V2000
   -0.0249   -0.1984    0.2828 O   0  0
    1.3478   -0.1794    0.1849 C   0  0
    1.9874    1.0531    0.1970 C   0  0
    3.3811    1.1715    0.1030 C   0  0
    4.0702    2.5536    0.1251 C   0  0  2  0  0  0
    4.9062    2.7826    1.4100 C   0  0
    6.2952    2.1300    1.3533 N   0  3
    6.3767    0.6072    1.1746 C   0  0
    5.6846    0.1081   -0.1059 C   0  0
    4.1547   -0.0103   -0.0094 C   0  0
    3.5051   -1.2660   -0.0117 C   0  0
    4.4361   -2.7356   -0.1171 Cl  0  0
    2.1053   -1.3507    0.0805 C   0  0
    1.5226   -2.4858    0.0747 O   0  5
    3.1384    3.7419   -0.1725 C   0  0
    3.0173    4.2133   -1.4852 C   0  0
    2.1875    5.2944   -1.7696 C   0  0
    1.4805    5.9111   -0.7405 C   0  0
    1.5969    5.4567    0.5707 C   0  0
    2.4266    4.3755    0.8555 C   0  0
   -0.4087    0.6783    0.3529 H   0  0
    1.3710    1.9345    0.2866 H   0  0
    4.7713    2.5646   -0.7104 H   0  0
    5.1608    3.8328    1.5598 H   0  0
    4.4325    2.3999    2.3153 H   0  0
    6.8039    2.5574    0.5923 H   0  0
    7.4527    0.4330    1.1421 H   0  0
    5.9742    0.1659    2.0876 H   0  0
    5.9605    0.7247   -0.9617 H   0  0
    6.1252   -0.8558   -0.3478 H   0  0
    3.5600    3.7387   -2.2898 H   0  0
    2.0919    5.6527   -2.7840 H   0  0
    0.8363    6.7494   -0.9616 H   0  0
    1.0444    5.9398    1.3631 H   0  0
    2.5052    4.0262    1.8747 H   0  0
    6.7843    2.3678    2.2046 H   0  0
  1  2  1  0
  1 21  1  0
  2  3  2  0
  2 13  1  0
  3  4  1  0
  3 22  1  0
  4  5  1  0
  4 10  2  0
  5  6  1  0
  5 15  1  0
  5 23  1  0
  6  7  1  0
  6 24  1  0
  6 25  1  0
  7  8  1  0
  7 26  1  0
  7 36  1  0
  8  9  1  0
  8 27  1  0
  8 28  1  0
  9 10  1  0
  9 29  1  0
  9 30  1  0
 10 11  1  0
 11 12  1  0
 11 13  2  0
 13 14  1  0
 15 16  2  0
 15 20  1  0
 16 17  1  0
 16 31  1  0
 17 18  2  0
 17 32  1  0
 18 19  1  0
 18 33  1  0
 19 20  2  0
 19 34  1  0
 20 35  1  0
M  CHG  2   7   1  14  -1
M  END
> <Mol2_MolInfo_Name>
9982

> <Mol2_MolInfo_Type>
SMALL

> <Mol2_MolInfo_Charge>
USER_CHARGES

> <Mol2_Substructures>
     1 ****        1 GROUP             0       ****    0 ROOT    

> <Name>
9982

$$$$
9982
  SciTegic06232017503D

 36 38  0  0  0  0            999 V2000
   -0.0248   -0.1985   -0.2831 O   0  0
    1.3478   -0.1794   -0.1850 C   0  0
    1.9874    1.0530   -0.1971 C   0  0
    3.3811    1.1715   -0.1030 C   0  0
    4.0701    2.5536   -0.1252 C   0  0  1  0  0  0
    4.9062    2.7826   -1.4100 C   0  0
    6.2952    2.1300   -1.3534 N   0  3
    6.3767    0.6072   -1.1747 C   0  0
    5.6846    0.1082    0.1060 C   0  0
    4.1547   -0.0103    0.0095 C   0  0
    3.5051   -1.2659    0.0119 C   0  0
    4.4361   -2.7356    0.1176 Cl  0  0
    2.1054   -1.3507   -0.0804 C   0  0
    1.5227   -2.4859   -0.0745 O   0  5
    3.1384    3.7419    0.1725 C   0  0
    3.0172    4.2132    1.4852 C   0  0
    2.1875    5.2943    1.7697 C   0  0
    1.4806    5.9111    0.7406 C   0  0
    1.5970    5.4568   -0.5707 C   0  0
    2.4267    4.3756   -0.8555 C   0  0
   -0.4086    0.6782   -0.3534 H   0  0
    1.3710    1.9345   -0.2869 H   0  0
    4.7713    2.5646    0.7103 H   0  0
    4.4324    2.3999   -2.3154 H   0  0
    5.1608    3.8328   -1.5598 H   0  0
    6.7841    2.3677   -2.2048 H   0  0
    5.9740    0.1659   -2.0876 H   0  0
    7.4526    0.4330   -1.1422 H   0  0
    6.1253   -0.8557    0.3479 H   0  0
    5.9606    0.7248    0.9617 H   0  0
    3.5598    3.7385    2.2898 H   0  0
    2.0918    5.6525    2.7841 H   0  0
    0.8365    6.7495    0.9617 H   0  0
    1.0446    5.9401   -1.3631 H   0  0
    2.5054    4.0264   -1.8746 H   0  0
    6.8039    2.5574   -0.5926 H   0  0
  1  2  1  0
  1 21  1  0
  2  3  2  0
  2 13  1  0
  3  4  1  0
  3 22  1  0
  4  5  1  0
  4 10  2  0
  5  6  1  0
  5 15  1  0
  5 23  1  0
  6  7  1  0
  6 24  1  0
  6 25  1  0
  7  8  1  0
  7 26  1  0
  7 36  1  0
  8  9  1  0
  8 27  1  0
  8 28  1  0
  9 10  1  0
  9 29  1  0
  9 30  1  0
 10 11  1  0
 11 12  1  0
 11 13  2  0
 13 14  1  0
 15 16  2  0
 15 20  1  0
 16 17  1  0
 16 31  1  0
 17 18  2  0
 17 32  1  0
 18 19  1  0
 18 33  1  0
 19 20  2  0
 19 34  1  0
 20 35  1  0
M  CHG  2   7   1  14  -1
M  END
> <Mol2_MolInfo_Name>
9982

> <Mol2_MolInfo_Type>
SMALL

> <Mol2_MolInfo_Charge>
USER_CHARGES

> <Mol2_Substructures>
     1 ****        1 GROUP             0       ****    0 ROOT    

> <Name>
9982

$$$$
10475
  SciTegic06232017503D

 37 39  0  0  0  0            999 V2000
   -0.1022    0.1545   -0.0064 O   0  0
    1.2668    0.0700    0.0429 C   0  0
    2.0265    1.2321   -0.0556 C   0  0
    3.4270    1.2003   -0.0093 C   0  0
    4.2029    2.5188   -0.0577 C   0  0
    5.0448    2.8570    1.1877 C   0  0
    6.3581    2.0697    1.2846 N   0  3
    6.2679    0.5414    1.3813 C   0  0
    5.6279   -0.1016    0.1282 C   0  0  1  0  0  0
    6.2150   -1.4941   -0.1592 C   0  0
    6.5766   -1.8378   -1.4673 C   0  0
    7.1211   -3.0901   -1.7385 C   0  0
    7.3106   -4.0000   -0.7014 C   0  0
    6.9630   -3.6679    0.6055 C   0  0
    6.4194   -2.4154    0.8774 C   0  0
    4.0871   -0.0433    0.1347 C   0  0
    3.3006   -1.2041    0.2383 C   0  0
    1.9095   -1.1578    0.1952 C   0  0
    1.1951   -2.3251    0.3002 O   0  0
   -0.4231    1.0522   -0.1166 H   0  0
    1.5167    2.1794   -0.1606 H   0  0
    4.7990    2.5655   -0.9700 H   0  0
    3.4799    3.3279   -0.1744 H   0  0
    5.3910    3.8910    1.1631 H   0  0
    4.5163    2.6865    2.1269 H   0  0
    6.9243    2.3000    0.4801 H   0  0
    7.3160    0.2631    1.5022 H   0  0
    5.7345    0.3262    2.3086 H   0  0
    5.9433    0.5024   -0.7251 H   0  0
    6.4321   -1.1392   -2.2787 H   0  0
    7.3953   -3.3548   -2.7491 H   0  0
    7.7314   -4.9720   -0.9127 H   0  0
    7.1139   -4.3791    1.4045 H   0  0
    6.1490   -2.1680    1.8936 H   0  0
    3.7674   -2.1709    0.3486 H   0  0
    1.7507   -3.1021    0.3938 H   0  0
    6.8560    2.4006    2.0992 H   0  0
  1  2  1  0
  1 20  1  0
  2  3  2  0
  2 18  1  0
  3  4  1  0
  3 21  1  0
  4  5  1  0
  4 16  2  0
  5  6  1  0
  5 22  1  0
  5 23  1  0
  6  7  1  0
  6 24  1  0
  6 25  1  0
  7  8  1  0
  7 26  1  0
  7 37  1  0
  8  9  1  0
  8 27  1  0
  8 28  1  0
  9 10  1  0
  9 16  1  0
  9 29  1  0
 10 11  2  0
 10 15  1  0
 11 12  1  0
 11 30  1  0
 12 13  2  0
 12 31  1  0
 13 14  1  0
 13 32  1  0
 14 15  2  0
 14 33  1  0
 15 34  1  0
 16 17  1  0
 17 18  2  0
 17 35  1  0
 18 19  1  0
 19 36  1  0
M  CHG  1   7   1
M  END
> <Mol2_MolInfo_Name>
10475

> <Mol2_MolInfo_Type>
SMALL

> <Mol2_MolInfo_Charge>
USER_CHARGES

> <Mol2_Substructures>
     1 ****        1 GROUP             0       ****    0 ROOT    

> <Name>
10475

$$$$
10475
  SciTegic06232017503D

 37 39  0  0  0  0            999 V2000
   -0.1022    0.1545    0.0062 O   0  0
    1.2668    0.0701   -0.0429 C   0  0
    2.0265    1.2322    0.0554 C   0  0
    3.4270    1.2004    0.0093 C   0  0
    4.2028    2.5189    0.0574 C   0  0
    5.0447    2.8569   -1.1880 C   0  0
    6.3582    2.0699   -1.2847 N   0  3
    6.2683    0.5415   -1.3805 C   0  0
    5.6278   -0.1015   -0.1276 C   0  0  2  0  0  0
    6.2149   -1.4941    0.1595 C   0  0
    6.5767   -1.8381    1.4674 C   0  0
    7.1213   -3.0904    1.7382 C   0  0
    7.3106   -4.0001    0.7009 C   0  0
    6.9627   -3.6677   -0.6059 C   0  0
    6.4191   -2.4151   -0.8773 C   0  0
    4.0871   -0.0432   -0.1344 C   0  0
    3.3006   -1.2040   -0.2379 C   0  0
    1.9095   -1.1578   -0.1949 C   0  0
    1.1952   -2.3251   -0.2999 O   0  0
   -0.4232    1.0522    0.1162 H   0  0
    1.5166    2.1795    0.1602 H   0  0
    3.4797    3.3280    0.1738 H   0  0
    4.7988    2.5661    0.9698 H   0  0
    4.5163    2.6860   -2.1272 H   0  0
    5.3907    3.8910   -1.1638 H   0  0
    6.8557    2.4002   -2.0997 H   0  0
    5.7354    0.3258   -2.3081 H   0  0
    7.3165    0.2633   -1.5010 H   0  0
    5.9429    0.5019    0.7263 H   0  0
    6.4324   -1.1399    2.2792 H   0  0
    7.3956   -3.3555    2.7487 H   0  0
    7.7314   -4.9722    0.9119 H   0  0
    7.1135   -4.3787   -1.4050 H   0  0
    6.1486   -2.1675   -1.8934 H   0  0
    3.7675   -2.1709   -0.3479 H   0  0
    1.7509   -3.1021   -0.3933 H   0  0
    6.9248    2.3009   -0.4807 H   0  0
  1  2  1  0
  1 20  1  0
  2  3  2  0
  2 18  1  0
  3  4  1  0
  3 21  1  0
  4  5  1  0
  4 16  2  0
  5  6  1  0
  5 22  1  0
  5 23  1  0
  6  7  1  0
  6 24  1  0
  6 25  1  0
  7  8  1  0
  7 26  1  0
  7 37  1  0
  8  9  1  0
  8 27  1  0
  8 28  1  0
  9 10  1  0
  9 16  1  0
  9 29  1  0
 10 11  2  0
 10 15  1  0
 11 12  1  0
 11 30  1  0
 12 13  2  0
 12 31  1  0
 13 14  1  0
 13 32  1  0
 14 15  2  0
 14 33  1  0
 15 34  1  0
 16 17  1  0
 17 18  2  0
 17 35  1  0
 18 19  1  0
 19 36  1  0
M  CHG  1   7   1
M  END
> <Mol2_MolInfo_Name>
10475

> <Mol2_MolInfo_Type>
SMALL

> <Mol2_MolInfo_Charge>
USER_CHARGES

> <Mol2_Substructures>
     1 ****        1 GROUP             0       ****    0 ROOT    

> <Name>
10475

$$$$
11488
  SciTegic06232017503D

 21 22  0  0  0  0            999 V2000
   -0.5648   -1.2376    0.0000 O   0  5
   -0.0750   -0.1105    0.0000 N   0  3
   -0.7065    0.9401    0.0000 O   0  0
    1.3905    0.0338    0.0000 C   0  0
    2.1817   -1.0630    0.0000 C   0  0
    3.6600   -1.0655    0.0000 C   0  0
    4.3322   -2.3056    0.0000 C   0  0
    5.7318   -2.3766    0.0000 C   0  0
    6.4365   -1.1790    0.0000 C   0  0
    7.7805   -0.9852    0.0000 O   0  0
    7.9812    0.4046    0.0000 C   0  0
    6.7216    1.0257    0.0000 O   0  0
    5.8006    0.0276    0.0000 C   0  0
    4.4130    0.1262    0.0000 C   0  0
    1.7231    1.0618    0.0000 H   0  0
    1.7242   -2.0426    0.0000 H   0  0
    3.7681   -3.2275    0.0000 H   0  0
    6.2336   -3.3330    0.0000 H   0  0
    8.5235    0.6900    0.9027 H   0  0
    8.5235    0.6900   -0.9027 H   0  0
    3.9363    1.0946    0.0000 H   0  0
  1  2  1  0
  2  3  2  0
  2  4  1  0
  4  5  2  0
  4 15  1  0
  5  6  1  0
  5 16  1  0
  6  7  2  0
  6 14  1  0
  7  8  1  0
  7 17  1  0
  8  9  2  0
  8 18  1  0
  9 10  1  0
  9 13  1  0
 10 11  1  0
 11 12  1  0
 11 19  1  0
 11 20  1  0
 12 13  1  0
 13 14  2  0
 14 21  1  0
M  CHG  2   1  -1   2   1
M  END
> <Mol2_MolInfo_Name>
11488

> <Mol2_MolInfo_Type>
SMALL

> <Mol2_MolInfo_Charge>
USER_CHARGES

> <Mol2_Substructures>
     1 ****        1 GROUP             0       ****    0 ROOT    

> <Name>
11488

$$$$
